10
                    3D
 Schrodinger Suite 2021-1.
 54 55  0  0  1  0            999 V2000
   -0.2669    0.3992   -4.9612 C   0  0  0  0  0  0
   -0.7005   -0.7070   -3.9943 C   0  0  0  0  0  0
   -0.3564   -0.3326   -2.6675 O   0  0  0  0  0  0
   -0.6385   -1.1481   -1.6213 C   0  0  0  0  0  0
   -1.1813   -2.2517   -1.7101 O   0  0  0  0  0  0
   -0.1879   -0.5796   -0.2871 C   0  0  2  0  0  0
   -0.4946    0.9329   -0.1188 C   0  0  0  0  0  0
   -1.9974    1.2800   -0.0744 C   0  0  0  0  0  0
   -2.2509    2.7569    0.1878 C   0  0  0  0  0  0
   -2.2846    3.6579   -0.8800 C   0  0  0  0  0  0
   -2.5105    5.0109   -0.6402 C   0  0  0  0  0  0
   -2.7019    5.4576    0.6657 C   0  0  0  0  0  0
   -2.6686    4.5643    1.7344 C   0  0  0  0  0  0
   -2.4416    3.2113    1.4955 C   0  0  0  0  0  0
    1.2593   -0.8529   -0.1560 N   0  0  2  0  0  0
    1.6539   -1.3035    1.1994 C   0  0  1  0  0  0
    1.2168   -2.7412    1.5529 C   0  0  0  0  0  0
    3.2028   -1.2027    1.2825 C   0  0  0  0  0  0
    3.8865   -1.6030    0.3352 O   0  0  0  0  0  0
    3.7505   -0.6932    2.4165 N   0  0  0  0  0  0
    3.0164   -0.1492    3.5646 C   0  0  0  0  0  0
    4.0774    0.2073    4.6017 C   0  0  0  0  0  0
    5.3089    0.4776    3.7521 C   0  0  0  0  0  0
    5.2121   -0.5664    2.6204 C   0  0  1  0  0  0
    5.9794   -1.8943    2.9486 C   0  0  0  0  0  0
    7.2005   -1.7320    3.1699 O   0  0  0  0  0  0
    5.2987   -2.9453    2.9538 O   0  5  0  0  0  0
   -0.5249    0.1385   -5.9875 H   0  0  0  0  0  0
    0.8111    0.5586   -4.9196 H   0  0  0  0  0  0
   -0.7566    1.3445   -4.7249 H   0  0  0  0  0  0
   -1.7775   -0.8662   -4.0693 H   0  0  0  0  0  0
   -0.2091   -1.6453   -4.2571 H   0  0  0  0  0  0
   -0.7567   -1.0996    0.4848 H   0  0  0  0  0  0
   -0.0467    1.2801    0.8142 H   0  0  0  0  0  0
    0.0012    1.5286   -0.8879 H   0  0  0  0  0  0
   -2.4816    1.0013   -1.0118 H   0  0  0  0  0  0
   -2.4989    0.6843    0.6903 H   0  0  0  0  0  0
   -2.1342    3.3117   -1.8924 H   0  0  0  0  0  0
   -2.5369    5.7104   -1.4625 H   0  0  0  0  0  0
   -2.8775    6.5071    0.8517 H   0  0  0  0  0  0
   -2.8176    4.9195    2.7435 H   0  0  0  0  0  0
   -2.4131    2.5196    2.3251 H   0  0  0  0  0  0
    1.7500    0.0069   -0.3574 H   0  0  0  0  0  0
    1.1951   -0.6280    1.9201 H   0  0  0  0  0  0
    1.5638   -3.0326    2.5454 H   0  0  0  0  0  0
    1.6088   -3.4688    0.8401 H   0  0  0  0  0  0
    0.1316   -2.8411    1.5549 H   0  0  0  0  0  0
    2.4896    0.7528    3.2494 H   0  0  0  0  0  0
    2.2892   -0.8536    3.9706 H   0  0  0  0  0  0
    3.7949    1.0453    5.2391 H   0  0  0  0  0  0
    4.2644   -0.6552    5.2432 H   0  0  0  0  0  0
    5.2442    1.4814    3.3286 H   0  0  0  0  0  0
    6.2316    0.4372    4.3333 H   0  0  0  0  0  0
    5.6809   -0.1375    1.7316 H   0  0  0  0  0  0
  1  2  1  0  0  0
  1 28  1  0  0  0
  1 29  1  0  0  0
  1 30  1  0  0  0
  2  3  1  0  0  0
  2 31  1  0  0  0
  2 32  1  0  0  0
  3  4  1  0  0  0
  4  5  2  0  0  0
  4  6  1  0  0  0
  6  7  1  0  0  0
  6 15  1  0  0  0
  6 33  1  0  0  0
  7  8  1  0  0  0
  7 34  1  0  0  0
  7 35  1  0  0  0
  8  9  1  0  0  0
  8 36  1  0  0  0
  8 37  1  0  0  0
  9 10  2  0  0  0
  9 14  1  0  0  0
 10 11  1  0  0  0
 10 38  1  0  0  0
 11 12  2  0  0  0
 11 39  1  0  0  0
 12 13  1  0  0  0
 12 40  1  0  0  0
 13 14  2  0  0  0
 13 41  1  0  0  0
 14 42  1  0  0  0
 15 16  1  0  0  0
 15 43  1  0  0  0
 16 17  1  0  0  0
 16 18  1  0  0  0
 16 44  1  0  0  0
 17 45  1  0  0  0
 17 46  1  0  0  0
 17 47  1  0  0  0
 18 19  2  0  0  0
 18 20  1  0  0  0
 20 21  1  0  0  0
 20 24  1  0  0  0
 21 22  1  0  0  0
 21 48  1  0  0  0
 21 49  1  0  0  0
 22 23  1  0  0  0
 22 50  1  0  0  0
 22 51  1  0  0  0
 23 24  1  0  0  0
 23 52  1  0  0  0
 23 53  1  0  0  0
 24 25  1  0  0  0
 24 54  1  0  0  0
 25 26  2  0  0  0
 25 27  1  0  0  0
M  CHG  1  27  -1
M  END
> <s_m_entry_id>
10

> <s_m_entry_name>
enalapril.1

> <i_lp_mmshare_version>
47013

> <i_f3d_flags>
0

> <s_epik_input>
W2NIXTFbY0hdW2NIXVtjSF1bY0hdYzFbQ0gyXVtDSDJdW0NAQEhdKEMoPU8pT1tDSDJdW0NIM10pW05IXVtDQEBIXShbQ0gzXSlDKD1PKU4yW0NIMl1bQ0gyXVtDSDJdW0NASF0yQyg9TylbT0hd

> <s_epik_cmdline>
J2VwaWtfcHl0aG9uJywgJy1waCcsICc3LjAnLCAnLXRuJywgJzgnLCAnLW1hJywgJzIwMCcsICctaW1hZScsICc8aW5maWxlLm1hZT4nLCAnLW9tYWUnLCAnPG91dGZpbGUubWFlPic=

> <r_epik_Ionization_Penalty>
  0.2063

> <r_epik_Ionization_Penalty_Charging>
  0.0005

> <r_epik_Ionization_Penalty_Neutral>
  0.2058

> <r_epik_State_Penalty>
  0.1957

> <r_epik_Charging_Adjusted_Penalty>
0.196223786911648

> <i_epik_Tot_Q>
-1

> <i_epik_Tot_abs_Q>
1

> <s_lp_Force_Field>
OPLS3e

> <r_lp_Energy>
48.76642

> <b_lp_Chiralities_Consistent>
1

> <s_lp_Variant>
CE1_5388962_-1

> <s_m_job_name>
ligprep_36

> <s_m_Source_Path>
/home/andre/Documents/projects/Esterase/data/FINAL_STUFF/Compounds/MAE_external

> <s_m_Source_File>
10.mae

> <i_m_Source_File_Index>
1

> <s_epik_Chemistry_Notes>
This compound has an ester and may undergo hydrolysis at high or low pH.

$$$$
