102
                    3D
 Schrodinger Suite 2021-1.
 77 79  0  0  1  0            999 V2000
    0.8194    5.4140   -0.2067 C   0  0  0  0  0  0
    1.6165    4.5263    0.5274 C   0  0  0  0  0  0
    1.1172    3.2462    0.8122 C   0  0  0  0  0  0
   -0.1286    2.8315    0.3315 C   0  0  0  0  0  0
   -0.9005    3.7304   -0.4068 C   0  0  0  0  0  0
   -0.4380    5.0261   -0.6870 C   0  0  0  0  0  0
   -0.6544    1.4699    0.5707 C   0  0  0  0  0  0
   -0.0017    0.2851    0.5981 C   0  0  0  0  0  0
    1.4138   -0.0211    0.2957 C   0  0  0  0  0  0
    2.0371   -1.0725    0.9654 C   0  0  0  0  0  0
    3.3763   -1.3699    0.7289 C   0  0  0  0  0  0
    4.1400   -0.6124   -0.1772 C   0  0  0  0  0  0
    3.5180    0.4530   -0.8644 C   0  0  0  0  0  0
    2.1567    0.7107   -0.6339 C   0  0  0  0  0  0
    4.2976    1.3630   -1.7923 C   0  0  0  0  0  0
    5.4770   -0.8784   -0.4297 O   0  0  0  0  0  0
    6.1369   -1.9325    0.2632 C   0  0  0  0  0  0
    2.8648    4.9737    0.9213 O   0  0  0  0  0  0
    1.2954    6.6695   -0.4978 O   0  0  0  0  0  0
   -1.1470    5.9576   -1.4244 O   0  0  0  0  0  0
   -2.4200    5.6071   -1.9553 C   0  0  0  0  0  0
    0.9955    7.6470    0.4881 C   0  0  0  0  0  0
    3.7588    4.0699    1.5615 C   0  0  0  0  0  0
    3.5979    1.9025   -2.8107 N   0  0  0  0  0  0
    5.4886    1.6091   -1.5926 O   0  0  0  0  0  0
    4.1012    2.8733   -3.7954 C   0  0  2  0  0  0
    3.3316    4.1726   -3.5744 C   0  0  0  0  0  0
    3.8741    2.3384   -5.2355 C   0  0  0  0  0  0
    4.6014    1.0119   -5.5638 C   0  0  0  0  0  0
    6.1310    1.1156   -5.3839 C   0  0  0  0  0  0
    4.2110    0.5004   -6.9669 C   0  0  0  0  0  0
    3.9510    5.2082   -4.1934 O   0  0  0  0  0  0
    2.2934    4.2730   -2.9109 O   0  0  0  0  0  0
    3.4520    6.5446   -4.1081 C   0  0  0  0  0  0
    4.2491    7.4047   -5.1144 C   0  0  0  0  0  0
    4.7119    8.6458   -4.3464 C   0  0  0  0  0  0
    4.8820    8.1491   -2.9148 C   0  0  0  0  0  0
    3.7086    7.1870   -2.7233 C   0  0  0  0  0  0
    1.7025    2.5522    1.3956 H   0  0  0  0  0  0
   -1.8621    3.4021   -0.7723 H   0  0  0  0  0  0
   -1.7124    1.4359    0.7894 H   0  0  0  0  0  0
   -0.6020   -0.5807    0.8398 H   0  0  0  0  0  0
    1.4863   -1.6641    1.6828 H   0  0  0  0  0  0
    3.8087   -2.1945    1.2742 H   0  0  0  0  0  0
    1.6678    1.5140   -1.1655 H   0  0  0  0  0  0
    7.1771   -1.9770   -0.0592 H   0  0  0  0  0  0
    5.6836   -2.9004    0.0455 H   0  0  0  0  0  0
    6.1338   -1.7671    1.3417 H   0  0  0  0  0  0
   -2.8260    6.4557   -2.5055 H   0  0  0  0  0  0
   -3.1287    5.3575   -1.1643 H   0  0  0  0  0  0
   -2.3469    4.7688   -2.6497 H   0  0  0  0  0  0
    1.4178    8.6053    0.1862 H   0  0  0  0  0  0
    1.4233    7.3858    1.4575 H   0  0  0  0  0  0
   -0.0815    7.7791    0.6052 H   0  0  0  0  0  0
    4.7067    4.5745    1.7476 H   0  0  0  0  0  0
    3.9659    3.2001    0.9354 H   0  0  0  0  0  0
    3.3681    3.7351    2.5233 H   0  0  0  0  0  0
    2.6314    1.6345   -2.9261 H   0  0  0  0  0  0
    5.1636    3.0732   -3.6405 H   0  0  0  0  0  0
    2.8039    2.2046   -5.4087 H   0  0  0  0  0  0
    4.2029    3.0869   -5.9591 H   0  0  0  0  0  0
    4.2464    0.2593   -4.8583 H   0  0  0  0  0  0
    6.4713    2.1513   -5.3697 H   0  0  0  0  0  0
    6.6828    0.6089   -6.1756 H   0  0  0  0  0  0
    6.4376    0.6594   -4.4419 H   0  0  0  0  0  0
    5.0452    0.5200   -7.6685 H   0  0  0  0  0  0
    3.4136    1.0966   -7.4118 H   0  0  0  0  0  0
    3.8515   -0.5279   -6.9180 H   0  0  0  0  0  0
    2.3953    6.5675   -4.3813 H   0  0  0  0  0  0
    5.1240    6.8736   -5.4956 H   0  0  0  0  0  0
    3.6408    7.6797   -5.9766 H   0  0  0  0  0  0
    5.6324    9.0680   -4.7517 H   0  0  0  0  0  0
    3.9459    9.4223   -4.3858 H   0  0  0  0  0  0
    5.8295    7.6170   -2.8103 H   0  0  0  0  0  0
    4.8757    8.9618   -2.1876 H   0  0  0  0  0  0
    2.8192    7.7235   -2.3915 H   0  0  0  0  0  0
    3.9651    6.4568   -1.9540 H   0  0  0  0  0  0
  1  2  2  0  0  0
  1  6  1  0  0  0
  1 19  1  0  0  0
  2  3  1  0  0  0
  2 18  1  0  0  0
  3  4  2  0  0  0
  3 39  1  0  0  0
  4  5  1  0  0  0
  4  7  1  0  0  0
  5  6  2  0  0  0
  5 40  1  0  0  0
  6 20  1  0  0  0
  7  8  2  0  0  0
  7 41  1  0  0  0
  8  9  1  0  0  0
  8 42  1  0  0  0
  9 14  2  0  0  0
  9 10  1  0  0  0
 10 11  2  0  0  0
 10 43  1  0  0  0
 11 12  1  0  0  0
 11 44  1  0  0  0
 12 13  2  0  0  0
 12 16  1  0  0  0
 13 14  1  0  0  0
 13 15  1  0  0  0
 14 45  1  0  0  0
 15 24  1  0  0  0
 15 25  2  0  0  0
 16 17  1  0  0  0
 17 46  1  0  0  0
 17 47  1  0  0  0
 17 48  1  0  0  0
 18 23  1  0  0  0
 19 22  1  0  0  0
 20 21  1  0  0  0
 21 49  1  0  0  0
 21 50  1  0  0  0
 21 51  1  0  0  0
 22 52  1  0  0  0
 22 53  1  0  0  0
 22 54  1  0  0  0
 23 55  1  0  0  0
 23 56  1  0  0  0
 23 57  1  0  0  0
 24 26  1  0  0  0
 24 58  1  0  0  0
 26 27  1  0  0  0
 26 28  1  0  0  0
 26 59  1  0  0  0
 27 32  1  0  0  0
 27 33  2  0  0  0
 28 29  1  0  0  0
 28 60  1  0  0  0
 28 61  1  0  0  0
 29 30  1  0  0  0
 29 31  1  0  0  0
 29 62  1  0  0  0
 30 63  1  0  0  0
 30 64  1  0  0  0
 30 65  1  0  0  0
 31 66  1  0  0  0
 31 67  1  0  0  0
 31 68  1  0  0  0
 32 34  1  0  0  0
 34 38  1  0  0  0
 34 35  1  0  0  0
 34 69  1  0  0  0
 35 36  1  0  0  0
 35 70  1  0  0  0
 35 71  1  0  0  0
 36 37  1  0  0  0
 36 72  1  0  0  0
 36 73  1  0  0  0
 37 38  1  0  0  0
 37 74  1  0  0  0
 37 75  1  0  0  0
 38 76  1  0  0  0
 38 77  1  0  0  0
M  END
> <s_m_entry_id>
102

> <s_m_entry_name>
entry

> <i_lp_mmshare_version>
47013

> <i_f3d_flags>
0

> <s_epik_input>
W0NIM11PYzFjKE9bQ0gzXSlbY0hdYyhbY0hdYzFPW0NIM10pL1tDSF09W0NIXVxjMltjSF1bY0hdYyhPW0NIM10pYyhbY0hdMilDKD1PKVtOSF1bQ0BASF0oW0NIMl1bQ0hdKFtDSDNdKVtDSDNdKUMoPU8pT1tDSF0zW0NIMl1bQ0gyXVtDSDJdW0NIMl0z

> <s_epik_cmdline>
J2VwaWtfcHl0aG9uJywgJy1waCcsICc3LjQnLCAnLXRuJywgJzgnLCAnLW1hJywgJzIwMCcsICctaW1hZScsICc8aW5maWxlLm1hZT4nLCAnLW9tYWUnLCAnPG91dGZpbGUubWFlPic=

> <r_epik_Ionization_Penalty>
  0.0000

> <r_epik_Ionization_Penalty_Charging>
  0.0000

> <r_epik_Ionization_Penalty_Neutral>
  0.0000

> <r_epik_State_Penalty>
  0.0000

> <r_epik_Charging_Adjusted_Penalty>
0

> <i_epik_Tot_Q>
0

> <i_epik_Tot_abs_Q>
0

> <s_lp_Force_Field>
OPLS3e

> <r_lp_Energy>
58.40224

> <b_lp_Chiralities_Consistent>
1

> <s_lp_Variant>
M126-1

> <s_m_job_name>
ligprep_1

> <s_m_Source_Path>
/home/andre/Documents/projects/Esterase/data/FINAL_STUFF/Compounds/MAE_external

> <s_m_Source_File>
102.mae

> <i_m_Source_File_Index>
1

> <r_lp_tautomer_probability>
1

> <s_epik_Chemistry_Notes>
This compound has an ester and may undergo hydrolysis at high or low pH.

$$$$
