103
                    3D
 Schrodinger Suite 2021-1.
 90 92  0  0  1  0            999 V2000
   -5.8985    0.5937   -3.8264 C   0  0  0  0  0  0
   -4.5025    0.6813   -3.9146 C   0  0  0  0  0  0
   -3.7224   -0.3094   -3.2988 C   0  0  0  0  0  0
   -4.3139   -1.3655   -2.6001 C   0  0  0  0  0  0
   -5.7059   -1.4428   -2.5409 C   0  0  0  0  0  0
   -6.5133   -0.4700   -3.1520 C   0  0  0  0  0  0
   -3.5087   -2.4092   -1.9342 C   0  0  0  0  0  0
   -2.3396   -2.2833   -1.2682 C   0  0  0  0  0  0
   -1.5993   -1.0552   -0.9133 C   0  0  0  0  0  0
   -2.2480    0.1143   -0.5139 C   0  0  0  0  0  0
   -1.5174    1.2534   -0.1909 C   0  0  0  0  0  0
   -0.1124    1.2550   -0.2475 C   0  0  0  0  0  0
    0.5537    0.0723   -0.6386 C   0  0  0  0  0  0
   -0.2051   -1.0644   -0.9672 C   0  0  0  0  0  0
    2.0646    0.0128   -0.7306 C   0  0  0  0  0  0
    0.6444    2.3684    0.0844 O   0  0  0  0  0  0
    0.0005    3.5790    0.4679 C   0  0  0  0  0  0
   -3.9768    1.7549   -4.6111 O   0  0  0  0  0  0
   -6.6773    1.5500   -4.4330 O   0  0  0  0  0  0
   -7.8964   -0.4889   -3.1293 O   0  0  0  0  0  0
   -8.5698   -1.5506   -2.4620 C   0  0  0  0  0  0
   -6.9709    2.6670   -3.6047 C   0  0  0  0  0  0
   -2.5639    1.8995   -4.7097 C   0  0  0  0  0  0
    2.6249   -1.1633   -0.3894 N   0  0  0  0  0  0
    2.7233    0.9894   -1.0934 O   0  0  0  0  0  0
    4.0598   -1.4443   -0.3724 C   0  0  0  0  0  0
    4.7874   -0.8960    0.8781 C   0  0  0  0  0  0
    4.1965   -1.2819    2.2574 C   0  0  0  0  0  0
    4.0657   -2.7930    2.4925 C   0  0  0  0  0  0
    5.0099   -3.3744    3.2573 N   0  0  0  0  0  0
    3.1240   -3.4146    1.9990 O   0  0  0  0  0  0
    5.0791   -4.8053    3.6052 C   0  0  1  0  0  0
    6.5408   -5.1251    4.0300 C   0  0  0  0  0  0
    4.0731   -5.0932    4.7211 C   0  0  0  0  0  0
    3.7559   -6.4098    4.7566 O   0  0  0  0  0  0
    3.6015   -4.2358    5.4754 O   0  0  0  0  0  0
    6.8778   -6.6129    4.3061 C   0  0  0  0  0  0
    8.3404   -6.7672    4.7758 C   0  0  0  0  0  0
    6.5527   -7.5320    3.1088 C   0  0  0  0  0  0
    2.8130   -6.9333    5.6928 C   0  0  0  0  0  0
    2.9107   -8.4718    5.6618 C   0  0  0  0  0  0
    1.7093   -8.9495    4.8442 C   0  0  0  0  0  0
    0.6183   -7.9371    5.1772 C   0  0  0  0  0  0
    1.3610   -6.6007    5.2665 C   0  0  0  0  0  0
   -2.6454   -0.2706   -3.3596 H   0  0  0  0  0  0
   -6.1519   -2.2685   -2.0068 H   0  0  0  0  0  0
   -3.8995   -3.4116   -2.0374 H   0  0  0  0  0  0
   -1.8933   -3.1973   -0.9023 H   0  0  0  0  0  0
   -3.3257    0.1480   -0.4475 H   0  0  0  0  0  0
   -2.0685    2.1308    0.1102 H   0  0  0  0  0  0
    0.2901   -1.9729   -1.2823 H   0  0  0  0  0  0
    0.7556    4.3370    0.6757 H   0  0  0  0  0  0
   -0.5917    3.4473    1.3745 H   0  0  0  0  0  0
   -0.6394    3.9620   -0.3285 H   0  0  0  0  0  0
   -9.6463   -1.4058   -2.5513 H   0  0  0  0  0  0
   -8.3270   -1.5726   -1.3986 H   0  0  0  0  0  0
   -8.3293   -2.5179   -2.9056 H   0  0  0  0  0  0
   -7.5865    3.3762   -4.1578 H   0  0  0  0  0  0
   -6.0627    3.1863   -3.2938 H   0  0  0  0  0  0
   -7.5256    2.3702   -2.7129 H   0  0  0  0  0  0
   -2.3343    2.7999   -5.2792 H   0  0  0  0  0  0
   -2.1106    1.0552   -5.2314 H   0  0  0  0  0  0
   -2.1015    2.0037   -3.7267 H   0  0  0  0  0  0
    2.0199   -1.9193   -0.1028 H   0  0  0  0  0  0
    4.1480   -2.5307   -0.3960 H   0  0  0  0  0  0
    4.5332   -1.0757   -1.2846 H   0  0  0  0  0  0
    5.8337   -1.2023    0.8372 H   0  0  0  0  0  0
    4.8145    0.1926    0.8114 H   0  0  0  0  0  0
    4.8119   -0.8404    3.0434 H   0  0  0  0  0  0
    3.2115   -0.8286    2.3791 H   0  0  0  0  0  0
    5.7680   -2.8071    3.6081 H   0  0  0  0  0  0
    4.8343   -5.3734    2.7051 H   0  0  0  0  0  0
    7.2134   -4.7841    3.2405 H   0  0  0  0  0  0
    6.7981   -4.5359    4.9131 H   0  0  0  0  0  0
    6.2634   -6.9436    5.1436 H   0  0  0  0  0  0
    8.9592   -7.3028    4.0558 H   0  0  0  0  0  0
    8.3887   -7.3164    5.7166 H   0  0  0  0  0  0
    8.8204   -5.8027    4.9442 H   0  0  0  0  0  0
    6.4445   -6.9718    2.1800 H   0  0  0  0  0  0
    5.6177   -8.0671    3.2787 H   0  0  0  0  0  0
    7.3202   -8.2869    2.9379 H   0  0  0  0  0  0
    3.0303   -6.5688    6.6986 H   0  0  0  0  0  0
    3.8309   -8.8291    5.1953 H   0  0  0  0  0  0
    2.8778   -8.8720    6.6763 H   0  0  0  0  0  0
    1.9398   -8.9173    3.7778 H   0  0  0  0  0  0
    1.4181   -9.9712    5.0907 H   0  0  0  0  0  0
   -0.1766   -7.9232    4.4307 H   0  0  0  0  0  0
    0.1633   -8.1800    6.1390 H   0  0  0  0  0  0
    0.8799   -5.9230    5.9723 H   0  0  0  0  0  0
    1.3379   -6.1176    4.2876 H   0  0  0  0  0  0
  1  2  2  0  0  0
  1  6  1  0  0  0
  1 19  1  0  0  0
  2  3  1  0  0  0
  2 18  1  0  0  0
  3  4  2  0  0  0
  3 45  1  0  0  0
  4  5  1  0  0  0
  4  7  1  0  0  0
  5  6  2  0  0  0
  5 46  1  0  0  0
  6 20  1  0  0  0
  7  8  2  0  0  0
  7 47  1  0  0  0
  8  9  1  0  0  0
  8 48  1  0  0  0
  9 14  2  0  0  0
  9 10  1  0  0  0
 10 11  2  0  0  0
 10 49  1  0  0  0
 11 12  1  0  0  0
 11 50  1  0  0  0
 12 13  2  0  0  0
 12 16  1  0  0  0
 13 14  1  0  0  0
 13 15  1  0  0  0
 14 51  1  0  0  0
 15 24  1  0  0  0
 15 25  2  0  0  0
 16 17  1  0  0  0
 17 52  1  0  0  0
 17 53  1  0  0  0
 17 54  1  0  0  0
 18 23  1  0  0  0
 19 22  1  0  0  0
 20 21  1  0  0  0
 21 55  1  0  0  0
 21 56  1  0  0  0
 21 57  1  0  0  0
 22 58  1  0  0  0
 22 59  1  0  0  0
 22 60  1  0  0  0
 23 61  1  0  0  0
 23 62  1  0  0  0
 23 63  1  0  0  0
 24 26  1  0  0  0
 24 64  1  0  0  0
 26 27  1  0  0  0
 26 65  1  0  0  0
 26 66  1  0  0  0
 27 28  1  0  0  0
 27 67  1  0  0  0
 27 68  1  0  0  0
 28 29  1  0  0  0
 28 69  1  0  0  0
 28 70  1  0  0  0
 29 30  1  0  0  0
 29 31  2  0  0  0
 30 32  1  0  0  0
 30 71  1  0  0  0
 32 33  1  0  0  0
 32 34  1  0  0  0
 32 72  1  0  0  0
 33 37  1  0  0  0
 33 73  1  0  0  0
 33 74  1  0  0  0
 34 35  1  0  0  0
 34 36  2  0  0  0
 35 40  1  0  0  0
 37 38  1  0  0  0
 37 39  1  0  0  0
 37 75  1  0  0  0
 38 76  1  0  0  0
 38 77  1  0  0  0
 38 78  1  0  0  0
 39 79  1  0  0  0
 39 80  1  0  0  0
 39 81  1  0  0  0
 40 44  1  0  0  0
 40 41  1  0  0  0
 40 82  1  0  0  0
 41 42  1  0  0  0
 41 83  1  0  0  0
 41 84  1  0  0  0
 42 43  1  0  0  0
 42 85  1  0  0  0
 42 86  1  0  0  0
 43 44  1  0  0  0
 43 87  1  0  0  0
 43 88  1  0  0  0
 44 89  1  0  0  0
 44 90  1  0  0  0
M  END
> <s_m_entry_id>
103

> <s_m_entry_name>
entry

> <i_lp_mmshare_version>
47013

> <i_f3d_flags>
0

> <s_epik_input>
W0NIM11PYzFjKE9bQ0gzXSlbY0hdYyhbY0hdYzFPW0NIM10pL1tDSF09W0NIXVxjMltjSF1bY0hdYyhPW0NIM10pYyhbY0hdMilDKD1PKVtOSF1bQ0gyXVtDSDJdW0NIMl1DKD1PKVtOSF1bQ0BASF0oW0NIMl1bQ0hdKFtDSDNdKVtDSDNdKUMoPU8pT1tDSF0zW0NIMl1bQ0gyXVtDSDJdW0NIMl0z

> <s_epik_cmdline>
J2VwaWtfcHl0aG9uJywgJy1waCcsICc3LjQnLCAnLXRuJywgJzgnLCAnLW1hJywgJzIwMCcsICctaW1hZScsICc8aW5maWxlLm1hZT4nLCAnLW9tYWUnLCAnPG91dGZpbGUubWFlPic=

> <r_epik_Ionization_Penalty>
  0.0000

> <r_epik_Ionization_Penalty_Charging>
  0.0000

> <r_epik_Ionization_Penalty_Neutral>
  0.0000

> <r_epik_State_Penalty>
  0.0000

> <r_epik_Charging_Adjusted_Penalty>
0

> <i_epik_Tot_Q>
0

> <i_epik_Tot_abs_Q>
0

> <s_lp_Force_Field>
OPLS3e

> <r_lp_Energy>
63.088037

> <b_lp_Chiralities_Consistent>
1

> <s_lp_Variant>
M127-1

> <s_m_job_name>
ligprep_2

> <s_m_Source_Path>
/home/andre/Documents/projects/Esterase/data/FINAL_STUFF/Compounds/MAE_external

> <s_m_Source_File>
103.mae

> <i_m_Source_File_Index>
1

> <r_lp_tautomer_probability>
1

> <s_epik_Chemistry_Notes>
This compound has an ester and may undergo hydrolysis at high or low pH.

$$$$
