105
                    3D
 Schrodinger Suite 2021-1.
 89 91  0  0  1  0            999 V2000
   -5.7145    0.5973   -3.6744 C   0  0  0  0  0  0
   -4.3194    0.6819   -3.5609 C   0  0  0  0  0  0
   -3.6416   -0.2866   -2.8035 C   0  0  0  0  0  0
   -4.3352   -1.3144   -2.1590 C   0  0  0  0  0  0
   -5.7214   -1.3890   -2.2998 C   0  0  0  0  0  0
   -6.4263   -0.4385   -3.0549 C   0  0  0  0  0  0
   -3.6454   -2.3313   -1.3409 C   0  0  0  0  0  0
   -2.6400   -2.1803   -0.4496 C   0  0  0  0  0  0
   -1.9981   -0.9487    0.0614 C   0  0  0  0  0  0
   -0.6770   -1.0145    0.5054 C   0  0  0  0  0  0
   -0.0395    0.1142    1.0153 C   0  0  0  0  0  0
   -0.7028    1.3524    1.0828 C   0  0  0  0  0  0
   -2.0277    1.4294    0.6070 C   0  0  0  0  0  0
   -2.6643    0.2782    0.1354 C   0  0  0  0  0  0
   -0.1182    2.4900    1.6128 O   0  0  0  0  0  0
    1.2180    2.4371    2.1019 C   0  0  0  0  0  0
   -3.6915    1.7291   -4.2108 O   0  0  0  0  0  0
   -6.3989    1.5195   -4.4305 O   0  0  0  0  0  0
   -7.7990   -0.4533   -3.2273 O   0  0  0  0  0  0
   -8.5693   -1.4829   -2.6165 C   0  0  0  0  0  0
   -6.7426    2.7086   -3.7326 C   0  0  0  0  0  0
   -2.2802    1.8761   -4.0967 C   0  0  0  0  0  0
   -2.7929    2.6085    0.5812 N   0  0  0  0  0  0
   -5.3522    5.6160   -1.5309 C   0  0  0  0  0  0
   -6.5216    5.1749   -1.0290 N   0  0  0  0  0  0
   -5.2130    6.7453   -2.0060 O   0  0  0  0  0  0
   -7.7808    5.9361   -0.9536 C   0  0  2  0  0  0
   -7.6999    6.9470    0.1903 C   0  0  0  0  0  0
   -8.9538    4.9366   -0.7596 C   0  0  0  0  0  0
  -10.3762    5.5492   -0.8028 C   0  0  0  0  0  0
  -11.4463    4.4881   -0.4673 C   0  0  0  0  0  0
  -10.6680    6.2697   -2.1365 C   0  0  0  0  0  0
   -7.0918    6.4535    1.3054 O   0  0  0  0  0  0
   -8.2011    8.0697    0.1020 O   0  0  0  0  0  0
   -6.9723    7.2238    2.5008 C   0  0  0  0  0  0
   -5.9844    6.4895    3.4333 C   0  0  0  0  0  0
   -6.6570    6.4359    4.8071 C   0  0  0  0  0  0
   -8.1456    6.3646    4.4839 C   0  0  0  0  0  0
   -8.3063    7.2980    3.2817 C   0  0  0  0  0  0
   -2.2033    3.7991   -0.0238 C   0  0  0  0  0  0
   -3.2369    4.9132   -0.2741 C   0  0  0  0  0  0
   -4.1761    4.6239   -1.4717 C   0  0  2  0  0  0
   -3.4342    4.7152   -2.6767 O   0  0  0  0  0  0
   -2.5673   -0.2507   -2.7033 H   0  0  0  0  0  0
   -6.2446   -2.1941   -1.8056 H   0  0  0  0  0  0
   -3.9795   -3.3438   -1.5177 H   0  0  0  0  0  0
   -2.2666   -3.0924   -0.0054 H   0  0  0  0  0  0
   -0.1356   -1.9491    0.4677 H   0  0  0  0  0  0
    0.9772    0.0022    1.3599 H   0  0  0  0  0  0
   -3.6957    0.3448   -0.1785 H   0  0  0  0  0  0
    1.5027    3.4202    2.4764 H   0  0  0  0  0  0
    1.9223    2.1679    1.3134 H   0  0  0  0  0  0
    1.3149    1.7298    2.9270 H   0  0  0  0  0  0
   -9.6217   -1.3380   -2.8602 H   0  0  0  0  0  0
   -8.4767   -1.4606   -1.5297 H   0  0  0  0  0  0
   -8.2794   -2.4696   -2.9812 H   0  0  0  0  0  0
   -7.3898    3.3235   -4.3578 H   0  0  0  0  0  0
   -5.8546    3.2959   -3.5004 H   0  0  0  0  0  0
   -7.2780    2.4997   -2.8044 H   0  0  0  0  0  0
   -1.9652    2.7587   -4.6531 H   0  0  0  0  0  0
   -1.7528    1.0171   -4.5138 H   0  0  0  0  0  0
   -1.9759    2.0151   -3.0580 H   0  0  0  0  0  0
   -3.7394    2.4429    0.2709 H   0  0  0  0  0  0
   -6.5735    4.2255   -0.6898 H   0  0  0  0  0  0
   -7.9077    6.4498   -1.9088 H   0  0  0  0  0  0
   -8.9010    4.1733   -1.5383 H   0  0  0  0  0  0
   -8.8238    4.4052    0.1857 H   0  0  0  0  0  0
  -10.4389    6.2976   -0.0119 H   0  0  0  0  0  0
  -12.0930    4.2597   -1.3145 H   0  0  0  0  0  0
  -12.0872    4.8289    0.3464 H   0  0  0  0  0  0
  -11.0016    3.5445   -0.1498 H   0  0  0  0  0  0
   -9.9755    5.9694   -2.9233 H   0  0  0  0  0  0
  -10.5764    7.3496   -2.0162 H   0  0  0  0  0  0
  -11.6745    6.0773   -2.5078 H   0  0  0  0  0  0
   -6.5747    8.2142    2.2710 H   0  0  0  0  0  0
   -5.7830    5.4728    3.0892 H   0  0  0  0  0  0
   -5.0251    7.0055    3.4860 H   0  0  0  0  0  0
   -6.3198    5.5870    5.4029 H   0  0  0  0  0  0
   -6.4379    7.3442    5.3713 H   0  0  0  0  0  0
   -8.4220    5.3444    4.2111 H   0  0  0  0  0  0
   -8.7697    6.6623    5.3273 H   0  0  0  0  0  0
   -8.4958    8.3227    3.6041 H   0  0  0  0  0  0
   -9.1623    6.9707    2.6894 H   0  0  0  0  0  0
   -1.3767    4.1811    0.5731 H   0  0  0  0  0  0
   -1.7487    3.5084   -0.9722 H   0  0  0  0  0  0
   -3.8208    5.0519    0.6388 H   0  0  0  0  0  0
   -2.7157    5.8598   -0.4291 H   0  0  0  0  0  0
   -4.5674    3.6075   -1.3933 H   0  0  0  0  0  0
   -2.5755    4.3090   -2.5390 H   0  0  0  0  0  0
  1  2  2  0  0  0
  1  6  1  0  0  0
  1 18  1  0  0  0
  2  3  1  0  0  0
  2 17  1  0  0  0
  3  4  2  0  0  0
  3 44  1  0  0  0
  4  5  1  0  0  0
  4  7  1  0  0  0
  5  6  2  0  0  0
  5 45  1  0  0  0
  6 19  1  0  0  0
  7  8  2  0  0  0
  7 46  1  0  0  0
  8  9  1  0  0  0
  8 47  1  0  0  0
  9 10  2  0  0  0
  9 14  1  0  0  0
 10 11  1  0  0  0
 10 48  1  0  0  0
 11 12  2  0  0  0
 11 49  1  0  0  0
 12 13  1  0  0  0
 12 15  1  0  0  0
 13 14  2  0  0  0
 13 23  1  0  0  0
 14 50  1  0  0  0
 15 16  1  0  0  0
 16 51  1  0  0  0
 16 52  1  0  0  0
 16 53  1  0  0  0
 17 22  1  0  0  0
 18 21  1  0  0  0
 19 20  1  0  0  0
 20 54  1  0  0  0
 20 55  1  0  0  0
 20 56  1  0  0  0
 21 57  1  0  0  0
 21 58  1  0  0  0
 21 59  1  0  0  0
 22 60  1  0  0  0
 22 61  1  0  0  0
 22 62  1  0  0  0
 23 40  1  0  0  0
 23 63  1  0  0  0
 24 25  1  0  0  0
 24 26  2  0  0  0
 24 42  1  0  0  0
 25 27  1  0  0  0
 25 64  1  0  0  0
 27 28  1  0  0  0
 27 29  1  0  0  0
 27 65  1  0  0  0
 28 33  1  0  0  0
 28 34  2  0  0  0
 29 30  1  0  0  0
 29 66  1  0  0  0
 29 67  1  0  0  0
 30 31  1  0  0  0
 30 32  1  0  0  0
 30 68  1  0  0  0
 31 69  1  0  0  0
 31 70  1  0  0  0
 31 71  1  0  0  0
 32 72  1  0  0  0
 32 73  1  0  0  0
 32 74  1  0  0  0
 33 35  1  0  0  0
 35 39  1  0  0  0
 35 36  1  0  0  0
 35 75  1  0  0  0
 36 37  1  0  0  0
 36 76  1  0  0  0
 36 77  1  0  0  0
 37 38  1  0  0  0
 37 78  1  0  0  0
 37 79  1  0  0  0
 38 39  1  0  0  0
 38 80  1  0  0  0
 38 81  1  0  0  0
 39 82  1  0  0  0
 39 83  1  0  0  0
 40 41  1  0  0  0
 40 84  1  0  0  0
 40 85  1  0  0  0
 41 42  1  0  0  0
 41 86  1  0  0  0
 41 87  1  0  0  0
 42 43  1  0  0  0
 42 88  1  0  0  0
 43 89  1  0  0  0
M  END
> <s_m_entry_id>
105

> <s_m_entry_name>
entry

> <i_lp_mmshare_version>
47013

> <i_f3d_flags>
0

> <s_epik_input>
W0NIM11PYzFjKE9bQ0gzXSlbY0hdYyhbY0hdYzFPW0NIM10pL1tDSF09W0NIXVxjMltjSF1bY0hdYyhPW0NIM10pYyhbY0hdMilbTkhdW0NIMl1bQ0gyXVtDQEhdKFtPSF0pQyg9TylbTkhdW0NAQEhdKFtDSDJdW0NIXShbQ0gzXSlbQ0gzXSlDKD1PKU9bQ0hdM1tDSDJdW0NIMl1bQ0gyXVtDSDJdMw==

> <s_epik_cmdline>
J2VwaWtfcHl0aG9uJywgJy1waCcsICc3LjQnLCAnLXRuJywgJzgnLCAnLW1hJywgJzIwMCcsICctaW1hZScsICc8aW5maWxlLm1hZT4nLCAnLW9tYWUnLCAnPG91dGZpbGUubWFlPic=

> <r_epik_Ionization_Penalty>
  0.0006

> <r_epik_Ionization_Penalty_Charging>
  0.0000

> <r_epik_Ionization_Penalty_Neutral>
  0.0006

> <r_epik_State_Penalty>
  0.0004

> <r_epik_Charging_Adjusted_Penalty>
0.000353235826710203

> <i_epik_Tot_Q>
0

> <i_epik_Tot_abs_Q>
0

> <s_lp_Force_Field>
OPLS3e

> <r_lp_Energy>
71.107046

> <b_lp_Chiralities_Consistent>
1

> <s_lp_Variant>
M129-1

> <s_m_job_name>
ligprep_4

> <s_m_Source_Path>
/home/andre/Documents/projects/Esterase/data/FINAL_STUFF/Compounds/MAE_external

> <s_m_Source_File>
105.mae

> <i_m_Source_File_Index>
1

> <s_epik_Chemistry_Notes>
This compound has an ester and may undergo hydrolysis at high or low pH.

$$$$
