106
                    3D
 Schrodinger Suite 2021-1.
 92 95  0  0  1  0            999 V2000
   -5.8271   -0.1028   -3.9855 C   0  0  0  0  0  0
   -4.4290   -0.1671   -3.9182 C   0  0  0  0  0  0
   -3.7558    0.6741   -3.0192 C   0  0  0  0  0  0
   -4.4565    1.5448   -2.1795 C   0  0  0  0  0  0
   -5.8490    1.5896   -2.2618 C   0  0  0  0  0  0
   -6.5501    0.7675   -3.1584 C   0  0  0  0  0  0
   -3.7681    2.4244   -1.2125 C   0  0  0  0  0  0
   -2.6625    2.1785   -0.4752 C   0  0  0  0  0  0
   -1.8975    0.9223   -0.3371 C   0  0  0  0  0  0
   -2.5236   -0.3250   -0.2775 C   0  0  0  0  0  0
   -1.7710   -1.4913   -0.1726 C   0  0  0  0  0  0
   -0.3683   -1.4406   -0.1072 C   0  0  0  0  0  0
    0.2671   -0.1859   -0.1355 C   0  0  0  0  0  0
   -0.5049    0.9827   -0.2587 C   0  0  0  0  0  0
    0.4283   -2.5711   -0.0080 O   0  0  0  0  0  0
   -0.1774   -3.8593    0.0131 C   0  0  0  0  0  0
   -3.7939   -1.0687   -4.7538 O   0  0  0  0  0  0
   -6.5019   -0.9259   -4.8553 O   0  0  0  0  0  0
   -7.9283    0.7574   -3.2809 O   0  0  0  0  0  0
   -8.7097    1.6208   -2.4623 C   0  0  0  0  0  0
   -6.7010   -0.3650   -6.1459 C   0  0  0  0  0  0
   -2.3778   -1.2018   -4.6909 C   0  0  0  0  0  0
    1.6766   -0.1765   -0.0670 N   0  0  0  0  0  0
    2.5170    0.8252    0.2816 C   0  0  0  0  0  0
    3.9925    0.4961    0.2033 C   0  0  0  0  0  0
    2.1545    1.9490    0.6357 O   0  0  0  0  0  0
    4.9275    1.5326    0.0746 C   0  0  0  0  0  0
    6.2882    1.2525   -0.0026 C   0  0  0  0  0  0
    6.7347   -0.0699    0.0443 C   0  0  0  0  0  0
    5.8150   -1.1080    0.1925 C   0  0  0  0  0  0
    4.4535   -0.8291    0.2692 C   0  0  0  0  0  0
    8.2231   -0.3903   -0.0568 C   0  0  0  0  0  0
    8.8840    0.2265   -1.2088 N   0  0  1  0  0  0
    8.3221   -0.0950   -2.5457 C   0  0  1  0  0  0
    8.8610    0.8665   -3.6382 C   0  0  0  0  0  0
    8.3757    2.3289   -3.4951 C   0  0  0  0  0  0
    6.8408    2.4554   -3.6211 C   0  0  0  0  0  0
    9.1251    3.2622   -4.4711 C   0  0  0  0  0  0
    8.6270   -1.5409   -2.9032 C   0  0  0  0  0  0
    7.5570   -2.3408   -2.6661 O   0  0  0  0  0  0
    9.7156   -1.9188   -3.3453 O   0  0  0  0  0  0
    7.6015   -3.7477   -2.9098 C   0  0  0  0  0  0
    7.5319   -4.0634   -4.4236 C   0  0  0  0  0  0
    6.4304   -5.1124   -4.5883 C   0  0  0  0  0  0
    5.4471   -4.7904   -3.4678 C   0  0  0  0  0  0
    6.3442   -4.3955   -2.2920 C   0  0  0  0  0  0
   -2.6782    0.6585   -2.9634 H   0  0  0  0  0  0
   -6.3799    2.2687   -1.6113 H   0  0  0  0  0  0
   -4.1955    3.4130   -1.1226 H   0  0  0  0  0  0
   -2.2984    2.9937    0.1340 H   0  0  0  0  0  0
   -3.6007   -0.3992   -0.3189 H   0  0  0  0  0  0
   -2.3014   -2.4307   -0.1431 H   0  0  0  0  0  0
   -0.0381    1.9534   -0.3230 H   0  0  0  0  0  0
    0.5992   -4.6205    0.0856 H   0  0  0  0  0  0
   -0.7421   -4.0505   -0.9007 H   0  0  0  0  0  0
   -0.8360   -3.9777    0.8746 H   0  0  0  0  0  0
   -9.7655    1.4762   -2.6910 H   0  0  0  0  0  0
   -8.4732    2.6698   -2.6469 H   0  0  0  0  0  0
   -8.5698    1.4021   -1.4025 H   0  0  0  0  0  0
   -7.2457   -1.0746   -6.7685 H   0  0  0  0  0  0
   -5.7523   -0.1489   -6.6404 H   0  0  0  0  0  0
   -7.2870    0.5545   -6.0980 H   0  0  0  0  0  0
   -2.0572   -1.9696   -5.3948 H   0  0  0  0  0  0
   -2.0471   -1.5073   -3.6967 H   0  0  0  0  0  0
   -1.8765   -0.2726   -4.9655 H   0  0  0  0  0  0
    2.1056   -1.0679   -0.2689 H   0  0  0  0  0  0
    4.6093    2.5645    0.0260 H   0  0  0  0  0  0
    6.9932    2.0642   -0.1085 H   0  0  0  0  0  0
    6.1514   -2.1334    0.2405 H   0  0  0  0  0  0
    3.7679   -1.6567    0.3836 H   0  0  0  0  0  0
    8.7123   -0.0419    0.8531 H   0  0  0  0  0  0
    8.3834   -1.4692   -0.0819 H   0  0  0  0  0  0
    8.9316    1.2254   -1.0678 H   0  0  0  0  0  0
    7.2388    0.0282   -2.5308 H   0  0  0  0  0  0
    9.9529    0.8521   -3.6173 H   0  0  0  0  0  0
    8.5791    0.5096   -4.6312 H   0  0  0  0  0  0
    8.6428    2.6622   -2.4914 H   0  0  0  0  0  0
    6.3827    1.5382   -3.9920 H   0  0  0  0  0  0
    6.5350    3.2556   -4.2947 H   0  0  0  0  0  0
    6.3922    2.6724   -2.6516 H   0  0  0  0  0  0
    8.4699    3.7088   -5.2187 H   0  0  0  0  0  0
    9.9099    2.7382   -5.0175 H   0  0  0  0  0  0
    9.6037    4.0798   -3.9312 H   0  0  0  0  0  0
    8.4975   -4.1756   -2.4560 H   0  0  0  0  0  0
    7.2743   -3.1742   -5.0019 H   0  0  0  0  0  0
    8.4875   -4.4294   -4.8006 H   0  0  0  0  0  0
    5.9650   -5.0767   -5.5740 H   0  0  0  0  0  0
    6.8402   -6.1148   -4.4519 H   0  0  0  0  0  0
    4.8093   -3.9529   -3.7561 H   0  0  0  0  0  0
    4.7985   -5.6340   -3.2295 H   0  0  0  0  0  0
    6.6231   -5.2704   -1.7029 H   0  0  0  0  0  0
    5.7963   -3.7170   -1.6360 H   0  0  0  0  0  0
  1  2  2  0  0  0
  1  6  1  0  0  0
  1 18  1  0  0  0
  2  3  1  0  0  0
  2 17  1  0  0  0
  3  4  2  0  0  0
  3 47  1  0  0  0
  4  5  1  0  0  0
  4  7  1  0  0  0
  5  6  2  0  0  0
  5 48  1  0  0  0
  6 19  1  0  0  0
  7  8  2  0  0  0
  7 49  1  0  0  0
  8  9  1  0  0  0
  8 50  1  0  0  0
  9 10  2  0  0  0
  9 14  1  0  0  0
 10 11  1  0  0  0
 10 51  1  0  0  0
 11 12  2  0  0  0
 11 52  1  0  0  0
 12 13  1  0  0  0
 12 15  1  0  0  0
 13 14  2  0  0  0
 13 23  1  0  0  0
 14 53  1  0  0  0
 15 16  1  0  0  0
 16 54  1  0  0  0
 16 55  1  0  0  0
 16 56  1  0  0  0
 17 22  1  0  0  0
 18 21  1  0  0  0
 19 20  1  0  0  0
 20 57  1  0  0  0
 20 58  1  0  0  0
 20 59  1  0  0  0
 21 60  1  0  0  0
 21 61  1  0  0  0
 21 62  1  0  0  0
 22 63  1  0  0  0
 22 64  1  0  0  0
 22 65  1  0  0  0
 23 24  1  0  0  0
 23 66  1  0  0  0
 24 25  1  0  0  0
 24 26  2  0  0  0
 25 31  2  0  0  0
 25 27  1  0  0  0
 27 28  2  0  0  0
 27 67  1  0  0  0
 28 29  1  0  0  0
 28 68  1  0  0  0
 29 30  2  0  0  0
 29 32  1  0  0  0
 30 31  1  0  0  0
 30 69  1  0  0  0
 31 70  1  0  0  0
 32 33  1  0  0  0
 32 71  1  0  0  0
 32 72  1  0  0  0
 33 34  1  0  0  0
 33 73  1  0  0  0
 34 35  1  0  0  0
 34 39  1  0  0  0
 34 74  1  0  0  0
 35 36  1  0  0  0
 35 75  1  0  0  0
 35 76  1  0  0  0
 36 37  1  0  0  0
 36 38  1  0  0  0
 36 77  1  0  0  0
 37 78  1  0  0  0
 37 79  1  0  0  0
 37 80  1  0  0  0
 38 81  1  0  0  0
 38 82  1  0  0  0
 38 83  1  0  0  0
 39 40  1  0  0  0
 39 41  2  0  0  0
 40 42  1  0  0  0
 42 46  1  0  0  0
 42 43  1  0  0  0
 42 84  1  0  0  0
 43 44  1  0  0  0
 43 85  1  0  0  0
 43 86  1  0  0  0
 44 45  1  0  0  0
 44 87  1  0  0  0
 44 88  1  0  0  0
 45 46  1  0  0  0
 45 89  1  0  0  0
 45 90  1  0  0  0
 46 91  1  0  0  0
 46 92  1  0  0  0
M  END
> <s_m_entry_id>
106

> <s_m_entry_name>
entry

> <i_lp_mmshare_version>
47013

> <i_f3d_flags>
0

> <s_epik_input>
W0NIM11PYzFjKE9bQ0gzXSlbY0hdYyhbY0hdYzFPW0NIM10pL1tDSF09W0NIXVxjMltjSF1bY0hdYyhPW0NIM10pYyhbY0hdMilbTkhdQyg9TyljM1tjSF1bY0hdYyhbY0hdW2NIXTMpW0NIMl1bTkhdW0NAQEhdKFtDSDJdW0NIXShbQ0gzXSlbQ0gzXSlDKD1PKU9bQ0hdNFtDSDJdW0NIMl1bQ0gyXVtDSDJdNA==

> <s_epik_cmdline>
J2VwaWtfcHl0aG9uJywgJy1waCcsICc3LjQnLCAnLXRuJywgJzgnLCAnLW1hJywgJzIwMCcsICctaW1hZScsICc8aW5maWxlLm1hZT4nLCAnLW9tYWUnLCAnPG91dGZpbGUubWFlPic=

> <r_epik_Ionization_Penalty>
  0.4729

> <r_epik_Ionization_Penalty_Charging>
  0.0000

> <r_epik_Ionization_Penalty_Neutral>
  0.4729

> <r_epik_State_Penalty>
  0.4773

> <r_epik_Charging_Adjusted_Penalty>
0.477307528653772

> <i_epik_Tot_Q>
0

> <i_epik_Tot_abs_Q>
0

> <s_lp_Force_Field>
OPLS3e

> <r_lp_Energy>
79.066728

> <b_lp_Chiralities_Consistent>
1

> <s_lp_Variant>
M130-3

> <s_m_job_name>
ligprep_6

> <s_m_Source_Path>
/home/andre/Documents/projects/Esterase/data/FINAL_STUFF/Compounds/MAE_external

> <s_m_Source_File>
106.mae

> <i_m_Source_File_Index>
1

> <s_epik_Chemistry_Notes>
This compound has an ester and may undergo hydrolysis at high or low pH.

$$$$
