107
                    3D
 Schrodinger Suite 2021-1.
 82 85  0  0  1  0            999 V2000
   -0.8036   -0.2316   -2.2906 C   0  0  0  0  0  0
    0.0170    0.9118   -1.6628 C   0  0  0  0  0  0
    1.4105    0.4663   -1.1802 C   0  0  0  0  0  0
   -0.7908    1.7175   -0.6307 C   0  0  0  0  0  0
   -1.3225    3.0060   -0.7638 C   0  0  0  0  0  0
   -1.9612    3.3651    0.4368 C   0  0  0  0  0  0
   -1.8778    2.2574    1.2766 C   0  0  0  0  0  0
   -1.1696    1.2559    0.6274 N   0  0  0  0  0  0
   -2.4113    2.1299    2.6671 C   0  0  0  0  0  0
   -3.3939    1.1827    2.9694 C   0  0  0  0  0  0
   -3.8892    1.0833    4.2667 C   0  0  0  0  0  0
   -3.4083    1.9371    5.2571 C   0  0  0  0  0  0
   -2.4384    2.8922    4.9595 C   0  0  0  0  0  0
   -1.9421    2.9913    3.6625 C   0  0  0  0  0  0
   -3.8900    1.8407    6.5169 F   0  0  0  0  0  0
   -2.6288    4.6640    0.7662 C   0  0  0  0  0  0
   -1.9248    5.8681    0.6638 C   0  0  0  0  0  0
   -2.5514    7.0719    0.9738 C   0  0  0  0  0  0
   -3.8811    7.0704    1.3890 C   0  0  0  0  0  0
   -4.5892    5.8758    1.4979 C   0  0  0  0  0  0
   -3.9624    4.6721    1.1866 C   0  0  0  0  0  0
   -1.1585    3.8575   -1.9076 C   0  0  0  0  0  0
   -2.0585    3.9664   -2.7395 O   0  0  0  0  0  0
    0.0398    4.4800   -1.9193 N   0  0  0  0  0  0
    0.5659    5.3836   -2.8609 C   0  0  0  0  0  0
    1.7387    6.0430   -2.4824 C   0  0  0  0  0  0
    2.3409    6.9555   -3.3444 C   0  0  0  0  0  0
    1.7730    7.2056   -4.5907 C   0  0  0  0  0  0
    0.6099    6.5488   -4.9838 C   0  0  0  0  0  0
    0.0046    5.6361   -4.1237 C   0  0  0  0  0  0
   -0.7787   -0.0143    1.2558 C   0  0  0  0  0  0
    0.4049    0.1813    2.2353 C   0  0  0  0  0  0
    0.8321   -1.0844    3.0135 C   0  0  2  0  0  0
    1.3199   -2.2420    2.1059 C   0  0  0  0  0  0
    2.0616   -3.3909    2.8309 C   0  0  2  0  0  0
    2.6844   -4.3920    1.8263 C   0  0  0  0  0  0
    3.6094   -5.4608    2.4291 C   0  0  0  0  0  0
    3.9106   -6.4234    1.5336 O   0  0  0  0  0  0
    4.0059   -5.4108    3.5961 O   0  0  0  0  0  0
    4.7565   -7.5082    1.8935 C   0  0  0  0  0  0
   -0.2375   -1.5084    3.8375 O   0  0  0  0  0  0
    1.1739   -4.0773    3.6965 O   0  0  0  0  0  0
    4.9299   -8.4420    0.6914 C   0  0  0  0  0  0
   -1.6943    0.1574   -2.7859 H   0  0  0  0  0  0
   -1.1355   -0.9692   -1.5629 H   0  0  0  0  0  0
   -0.2218   -0.7634   -3.0442 H   0  0  0  0  0  0
    0.2316    1.5750   -2.5014 H   0  0  0  0  0  0
    1.9539    1.2933   -0.7218 H   0  0  0  0  0  0
    2.0109    0.1101   -2.0180 H   0  0  0  0  0  0
    1.3711   -0.3510   -0.4646 H   0  0  0  0  0  0
   -3.7762    0.5261    2.2013 H   0  0  0  0  0  0
   -4.6454    0.3494    4.5030 H   0  0  0  0  0  0
   -2.0737    3.5541    5.7310 H   0  0  0  0  0  0
   -1.1918    3.7345    3.4333 H   0  0  0  0  0  0
   -0.8914    5.8748    0.3500 H   0  0  0  0  0  0
   -2.0085    8.0021    0.8939 H   0  0  0  0  0  0
   -4.3674    8.0044    1.6295 H   0  0  0  0  0  0
   -5.6198    5.8830    1.8208 H   0  0  0  0  0  0
   -4.5152    3.7474    1.2700 H   0  0  0  0  0  0
    0.6446    4.2967   -1.1324 H   0  0  0  0  0  0
    2.1883    5.8564   -1.5172 H   0  0  0  0  0  0
    3.2447    7.4669   -3.0478 H   0  0  0  0  0  0
    2.2402    7.9129   -5.2602 H   0  0  0  0  0  0
    0.1795    6.7444   -5.9548 H   0  0  0  0  0  0
   -0.8869    5.1370   -4.4676 H   0  0  0  0  0  0
   -1.6405   -0.4227    1.7803 H   0  0  0  0  0  0
   -0.5564   -0.7592    0.4991 H   0  0  0  0  0  0
    1.2682    0.5724    1.6970 H   0  0  0  0  0  0
    0.1535    0.9566    2.9605 H   0  0  0  0  0  0
    1.6500   -0.7978    3.6764 H   0  0  0  0  0  0
    0.4852   -2.6457    1.5301 H   0  0  0  0  0  0
    2.0063   -1.8193    1.3708 H   0  0  0  0  0  0
    2.8555   -2.9551    3.4404 H   0  0  0  0  0  0
    1.8906   -4.8909    1.2689 H   0  0  0  0  0  0
    3.2696   -3.8397    1.0905 H   0  0  0  0  0  0
    5.7296   -7.1324    2.2144 H   0  0  0  0  0  0
    4.3236   -8.0575    2.7314 H   0  0  0  0  0  0
    0.0505   -2.2798    4.3328 H   0  0  0  0  0  0
    0.4820   -4.4811    3.1673 H   0  0  0  0  0  0
    5.5746   -9.2833    0.9457 H   0  0  0  0  0  0
    5.3826   -7.9193   -0.1519 H   0  0  0  0  0  0
    3.9716   -8.8457    0.3630 H   0  0  0  0  0  0
  1  2  1  0  0  0
  1 44  1  0  0  0
  1 45  1  0  0  0
  1 46  1  0  0  0
  2  3  1  0  0  0
  2  4  1  0  0  0
  2 47  1  0  0  0
  3 48  1  0  0  0
  3 49  1  0  0  0
  3 50  1  0  0  0
  4  8  1  0  0  0
  4  5  2  0  0  0
  5  6  1  0  0  0
  5 22  1  0  0  0
  6  7  2  0  0  0
  6 16  1  0  0  0
  7  8  1  0  0  0
  7  9  1  0  0  0
  8 31  1  0  0  0
  9 14  1  0  0  0
  9 10  2  0  0  0
 10 11  1  0  0  0
 10 51  1  0  0  0
 11 12  2  0  0  0
 11 52  1  0  0  0
 12 13  1  0  0  0
 12 15  1  0  0  0
 13 14  2  0  0  0
 13 53  1  0  0  0
 14 54  1  0  0  0
 16 21  1  0  0  0
 16 17  2  0  0  0
 17 18  1  0  0  0
 17 55  1  0  0  0
 18 19  2  0  0  0
 18 56  1  0  0  0
 19 20  1  0  0  0
 19 57  1  0  0  0
 20 21  2  0  0  0
 20 58  1  0  0  0
 21 59  1  0  0  0
 22 23  2  0  0  0
 22 24  1  0  0  0
 24 25  1  0  0  0
 24 60  1  0  0  0
 25 30  1  0  0  0
 25 26  2  0  0  0
 26 27  1  0  0  0
 26 61  1  0  0  0
 27 28  2  0  0  0
 27 62  1  0  0  0
 28 29  1  0  0  0
 28 63  1  0  0  0
 29 30  2  0  0  0
 29 64  1  0  0  0
 30 65  1  0  0  0
 31 32  1  0  0  0
 31 66  1  0  0  0
 31 67  1  0  0  0
 32 33  1  0  0  0
 32 68  1  0  0  0
 32 69  1  0  0  0
 33 34  1  0  0  0
 33 41  1  0  0  0
 33 70  1  0  0  0
 34 35  1  0  0  0
 34 71  1  0  0  0
 34 72  1  0  0  0
 35 36  1  0  0  0
 35 42  1  0  0  0
 35 73  1  0  0  0
 36 37  1  0  0  0
 36 74  1  0  0  0
 36 75  1  0  0  0
 37 38  1  0  0  0
 37 39  2  0  0  0
 38 40  1  0  0  0
 40 43  1  0  0  0
 40 76  1  0  0  0
 40 77  1  0  0  0
 41 78  1  0  0  0
 42 79  1  0  0  0
 43 80  1  0  0  0
 43 81  1  0  0  0
 43 82  1  0  0  0
M  END
> <s_m_entry_id>
107

> <s_m_entry_name>
entry

> <i_lp_mmshare_version>
47013

> <i_f3d_flags>
0

> <s_epik_input>
W2NIXTFbY0hdW2NIXVtjSF1bY0hdYzFbTkhdQyg9TyljKGMyW0NIXShbQ0gzXSlbQ0gzXSljKC1jM1tjSF1bY0hdW2NIXVtjSF1bY0hdMyljKC1jNFtjSF1bY0hdYyhGKVtjSF1bY0hdNCluMltDSDJdW0NIMl1bQ0BASF0oW09IXSlbQ0gyXVtDQEBIXShbT0hdKVtDSDJdQyg9TylPW0NIMl1bQ0gzXQ==

> <s_epik_cmdline>
J2VwaWtfcHl0aG9uJywgJy1waCcsICc3LjQnLCAnLXRuJywgJzgnLCAnLW1hJywgJzIwMCcsICctaW1hZScsICc8aW5maWxlLm1hZT4nLCAnLW9tYWUnLCAnPG91dGZpbGUubWFlPic=

> <r_epik_Ionization_Penalty>
  0.0000

> <r_epik_Ionization_Penalty_Charging>
  0.0000

> <r_epik_Ionization_Penalty_Neutral>
  0.0000

> <r_epik_State_Penalty>
  0.0000

> <r_epik_Charging_Adjusted_Penalty>
0

> <i_epik_Tot_Q>
0

> <i_epik_Tot_abs_Q>
0

> <s_lp_Force_Field>
OPLS3e

> <r_lp_Energy>
45.878629

> <b_lp_Chiralities_Consistent>
1

> <s_lp_Variant>
57892870-1

> <s_m_job_name>
ligprep_14

> <s_m_Source_Path>
/home/andre/Documents/projects/Esterase/data/FINAL_STUFF/Compounds/MAE_external

> <s_m_Source_File>
107.mae

> <i_m_Source_File_Index>
1

> <r_lp_tautomer_probability>
1

> <s_epik_Chemistry_Notes>
This compound has an ester and may undergo hydrolysis at high or low pH.

$$$$
