108
                    3D
 Schrodinger Suite 2021-1.
 85 88  0  0  1  0            999 V2000
   -4.1611    1.1838   -1.0457 C   0  0  0  0  0  0
   -3.1889    0.4842   -0.0794 C   0  0  0  0  0  0
   -3.7769   -0.8345    0.4575 C   0  0  0  0  0  0
   -2.7423    1.4376    1.0424 C   0  0  0  0  0  0
   -3.4501    1.9915    2.1198 C   0  0  0  0  0  0
   -2.5585    2.7589    2.8957 C   0  0  0  0  0  0
   -1.3297    2.7297    2.2412 C   0  0  0  0  0  0
   -1.4510    1.9458    1.1059 N   0  0  0  0  0  0
   -0.0573    3.3875    2.6606 C   0  0  0  0  0  0
    0.4852    4.4280    1.9016 C   0  0  0  0  0  0
    1.6635    5.0457    2.3120 C   0  0  0  0  0  0
    2.2926    4.6256    3.4821 C   0  0  0  0  0  0
    1.7507    3.5949    4.2476 C   0  0  0  0  0  0
    0.5714    2.9780    3.8389 C   0  0  0  0  0  0
    3.4372    5.2258    3.8798 F   0  0  0  0  0  0
   -2.8440    3.4982    4.1651 C   0  0  0  0  0  0
   -3.3279    2.8226    5.2898 C   0  0  0  0  0  0
   -3.5884    3.5215    6.4654 C   0  0  0  0  0  0
   -3.3592    4.8945    6.5167 C   0  0  0  0  0  0
   -2.8707    5.5747    5.4034 C   0  0  0  0  0  0
   -2.6128    4.8758    4.2272 C   0  0  0  0  0  0
   -4.8240    1.7348    2.4438 C   0  0  0  0  0  0
   -5.7156    2.4583    2.0023 O   0  0  0  0  0  0
   -4.9698    0.6622    3.2507 N   0  0  0  0  0  0
   -6.1400    0.0829    3.7747 C   0  0  0  0  0  0
   -5.9443   -1.0003    4.6362 C   0  0  0  0  0  0
   -7.0353   -1.6506    5.2061 C   0  0  0  0  0  0
   -8.3259   -1.2183    4.9135 C   0  0  0  0  0  0
   -8.5350   -0.1416    4.0557 C   0  0  0  0  0  0
   -7.4462    0.5110    3.4836 C   0  0  0  0  0  0
   -0.3417    1.5888    0.2110 C   0  0  0  0  0  0
    0.3026    0.2546    0.6488 C   0  0  0  0  0  0
    1.4553   -0.2215   -0.2614 C   0  0  2  0  0  0
    1.9771   -1.6200    0.1492 C   0  0  0  0  0  0
    2.9973   -2.2677   -0.8238 C   0  0  2  0  0  0
    3.2024   -3.7898   -0.6019 C   0  0  0  0  0  0
    3.7841   -4.2379    0.7502 C   0  0  0  0  0  0
    3.7087   -5.5757    0.9041 O   0  0  0  0  0  0
    4.2480   -3.4431    1.5714 O   0  0  0  0  0  0
    4.1808   -6.1975    2.0927 C   0  0  0  0  0  0
    2.5047    0.7277   -0.2250 O   0  0  0  0  0  0
    4.2415   -1.5914   -0.7900 O   0  0  0  0  0  0
    3.9690   -7.7151    1.9965 C   0  0  0  0  0  0
    4.4517   -8.4575    3.2490 C   0  0  0  0  0  0
   -3.7105    2.0772   -1.4795 H   0  0  0  0  0  0
   -5.0820    1.4859   -0.5464 H   0  0  0  0  0  0
   -4.4409    0.5258   -1.8692 H   0  0  0  0  0  0
   -2.3448    0.1714   -0.6904 H   0  0  0  0  0  0
   -3.1172   -1.2938    1.1947 H   0  0  0  0  0  0
   -3.9147   -1.5547   -0.3500 H   0  0  0  0  0  0
   -4.7534   -0.6938    0.9191 H   0  0  0  0  0  0
   -0.0044    4.7584    0.9969 H   0  0  0  0  0  0
    2.0864    5.8484    1.7262 H   0  0  0  0  0  0
    2.2419    3.2768    5.1552 H   0  0  0  0  0  0
    0.1492    2.1823    4.4358 H   0  0  0  0  0  0
   -3.4962    1.7564    5.2605 H   0  0  0  0  0  0
   -3.9643    3.0009    7.3338 H   0  0  0  0  0  0
   -3.5612    5.4364    7.4288 H   0  0  0  0  0  0
   -2.6941    6.6391    5.4515 H   0  0  0  0  0  0
   -2.2361    5.4063    3.3646 H   0  0  0  0  0  0
   -4.1174    0.1961    3.5244 H   0  0  0  0  0  0
   -4.9466   -1.3452    4.8694 H   0  0  0  0  0  0
   -6.8811   -2.4873    5.8715 H   0  0  0  0  0  0
   -9.1724   -1.7234    5.3548 H   0  0  0  0  0  0
   -9.5397    0.1861    3.8329 H   0  0  0  0  0  0
   -7.6498    1.3360    2.8206 H   0  0  0  0  0  0
   -0.7000    1.5537   -0.8175 H   0  0  0  0  0  0
    0.4005    2.3848    0.2095 H   0  0  0  0  0  0
    0.6652    0.3472    1.6745 H   0  0  0  0  0  0
   -0.4662   -0.5191    0.6725 H   0  0  0  0  0  0
    1.0870   -0.2737   -1.2871 H   0  0  0  0  0  0
    2.3917   -1.5734    1.1575 H   0  0  0  0  0  0
    1.1174   -2.2885    0.2190 H   0  0  0  0  0  0
    2.6128   -2.1512   -1.8381 H   0  0  0  0  0  0
    2.2462   -4.2959   -0.7395 H   0  0  0  0  0  0
    3.8599   -4.1736   -1.3828 H   0  0  0  0  0  0
    5.2404   -5.9753    2.2314 H   0  0  0  0  0  0
    3.6435   -5.7994    2.9554 H   0  0  0  0  0  0
    3.2354    0.3917   -0.7506 H   0  0  0  0  0  0
    4.6228   -1.7034    0.0846 H   0  0  0  0  0  0
    2.9105   -7.9283    1.8399 H   0  0  0  0  0  0
    4.4956   -8.1045    1.1241 H   0  0  0  0  0  0
    4.2877   -9.5313    3.1527 H   0  0  0  0  0  0
    3.9183   -8.1204    4.1385 H   0  0  0  0  0  0
    5.5178   -8.2995    3.4168 H   0  0  0  0  0  0
  1  2  1  0  0  0
  1 45  1  0  0  0
  1 46  1  0  0  0
  1 47  1  0  0  0
  2  3  1  0  0  0
  2  4  1  0  0  0
  2 48  1  0  0  0
  3 49  1  0  0  0
  3 50  1  0  0  0
  3 51  1  0  0  0
  4  8  1  0  0  0
  4  5  2  0  0  0
  5  6  1  0  0  0
  5 22  1  0  0  0
  6  7  2  0  0  0
  6 16  1  0  0  0
  7  8  1  0  0  0
  7  9  1  0  0  0
  8 31  1  0  0  0
  9 14  1  0  0  0
  9 10  2  0  0  0
 10 11  1  0  0  0
 10 52  1  0  0  0
 11 12  2  0  0  0
 11 53  1  0  0  0
 12 13  1  0  0  0
 12 15  1  0  0  0
 13 14  2  0  0  0
 13 54  1  0  0  0
 14 55  1  0  0  0
 16 21  1  0  0  0
 16 17  2  0  0  0
 17 18  1  0  0  0
 17 56  1  0  0  0
 18 19  2  0  0  0
 18 57  1  0  0  0
 19 20  1  0  0  0
 19 58  1  0  0  0
 20 21  2  0  0  0
 20 59  1  0  0  0
 21 60  1  0  0  0
 22 23  2  0  0  0
 22 24  1  0  0  0
 24 25  1  0  0  0
 24 61  1  0  0  0
 25 30  1  0  0  0
 25 26  2  0  0  0
 26 27  1  0  0  0
 26 62  1  0  0  0
 27 28  2  0  0  0
 27 63  1  0  0  0
 28 29  1  0  0  0
 28 64  1  0  0  0
 29 30  2  0  0  0
 29 65  1  0  0  0
 30 66  1  0  0  0
 31 32  1  0  0  0
 31 67  1  0  0  0
 31 68  1  0  0  0
 32 33  1  0  0  0
 32 69  1  0  0  0
 32 70  1  0  0  0
 33 34  1  0  0  0
 33 41  1  0  0  0
 33 71  1  0  0  0
 34 35  1  0  0  0
 34 72  1  0  0  0
 34 73  1  0  0  0
 35 36  1  0  0  0
 35 42  1  0  0  0
 35 74  1  0  0  0
 36 37  1  0  0  0
 36 75  1  0  0  0
 36 76  1  0  0  0
 37 38  1  0  0  0
 37 39  2  0  0  0
 38 40  1  0  0  0
 40 43  1  0  0  0
 40 77  1  0  0  0
 40 78  1  0  0  0
 41 79  1  0  0  0
 42 80  1  0  0  0
 43 44  1  0  0  0
 43 81  1  0  0  0
 43 82  1  0  0  0
 44 83  1  0  0  0
 44 84  1  0  0  0
 44 85  1  0  0  0
M  END
> <s_m_entry_id>
108

> <s_m_entry_name>
entry

> <i_lp_mmshare_version>
47013

> <i_f3d_flags>
0

> <s_epik_input>
W2NIXTFbY0hdW2NIXVtjSF1bY0hdYzFbTkhdQyg9TyljKGMyW0NIXShbQ0gzXSlbQ0gzXSljKC1jM1tjSF1bY0hdW2NIXVtjSF1bY0hdMyljKC1jNFtjSF1bY0hdYyhGKVtjSF1bY0hdNCluMltDSDJdW0NIMl1bQ0BASF0oW09IXSlbQ0gyXVtDQEBIXShbT0hdKVtDSDJdQyg9TylPW0NIMl1bQ0gyXVtDSDNd

> <s_epik_cmdline>
J2VwaWtfcHl0aG9uJywgJy1waCcsICc3LjQnLCAnLXRuJywgJzgnLCAnLW1hJywgJzIwMCcsICctaW1hZScsICc8aW5maWxlLm1hZT4nLCAnLW9tYWUnLCAnPG91dGZpbGUubWFlPic=

> <r_epik_Ionization_Penalty>
  0.0000

> <r_epik_Ionization_Penalty_Charging>
  0.0000

> <r_epik_Ionization_Penalty_Neutral>
  0.0000

> <r_epik_State_Penalty>
  0.0000

> <r_epik_Charging_Adjusted_Penalty>
0

> <i_epik_Tot_Q>
0

> <i_epik_Tot_abs_Q>
0

> <s_lp_Force_Field>
OPLS3e

> <r_lp_Energy>
48.229699

> <b_lp_Chiralities_Consistent>
1

> <s_lp_Variant>
M136-1

> <s_m_job_name>
ligprep_14

> <s_m_Source_Path>
/home/andre/Documents/projects/Esterase/data/FINAL_STUFF/Compounds/MAE_external

> <s_m_Source_File>
108.mae

> <i_m_Source_File_Index>
1

> <r_lp_tautomer_probability>
1

> <s_epik_Chemistry_Notes>
This compound has an ester and may undergo hydrolysis at high or low pH.

$$$$
