11
                    3D
 Schrodinger Suite 2021-1.
 29 31  0  0  1  0            999 V2000
   -2.2621    0.6076    0.0771 C   0  0  0  0  0  0
   -3.5635    1.1259    0.1282 C   0  0  0  0  0  0
   -4.6287    0.2308    0.0130 C   0  0  0  0  0  0
   -4.4069   -1.1379   -0.1497 C   0  0  0  0  0  0
   -3.1149   -1.6647   -0.2022 C   0  0  0  0  0  0
   -2.0295   -0.7826   -0.0866 C   0  0  0  0  0  0
   -0.7160    1.4335    0.1893 S   0  0  0  0  0  0
    0.0818   -0.1257    0.0121 C   0  0  0  0  0  0
   -0.7211   -1.1497   -0.1180 N   0  0  0  0  0  0
   -3.7360    2.1851    0.2532 H   0  0  0  0  0  0
   -5.2503   -1.8078   -0.2370 H   0  0  0  0  0  0
   -2.9611   -2.7267   -0.3277 H   0  0  0  0  0  0
    2.3434   -1.8228   -0.1122 S   0  0  0  0  0  0
    1.5463   -0.2201    0.0192 C   0  0  0  0  0  0
    2.2957    0.8028    0.1193 N   0  0  0  0  0  0
    3.7041    0.4829    0.0905 C   0  0  2  0  0  0
    3.9467   -1.0387    0.1001 C   0  0  0  0  0  0
    4.3851   -1.4261    1.0215 H   0  0  0  0  0  0
    4.3210    1.2121    1.3012 C   0  0  0  0  0  0
    4.9450    2.3556    0.9449 O   0  0  0  0  0  0
    5.5850    3.1629    1.9223 C   0  0  0  0  0  0
    6.0140    4.0462    1.4496 H   0  0  0  0  0  0
    6.3905    2.6165    2.4151 H   0  0  0  0  0  0
    4.8760    3.4951    2.6821 H   0  0  0  0  0  0
    4.2569    0.7535    2.4456 O   0  0  0  0  0  0
    4.1201    0.9143   -0.8214 H   0  0  0  0  0  0
    4.5903   -1.3425   -0.7258 H   0  0  0  0  0  0
   -5.9135    0.7031    0.0609 O   0  0  0  0  0  0
   -5.9615    1.6546    0.1778 H   0  0  0  0  0  0
  1  2  1  0  0  0
  1  6  2  0  0  0
  1  7  1  0  0  0
  2  3  2  0  0  0
  2 10  1  0  0  0
  3  4  1  0  0  0
  3 28  1  0  0  0
  4  5  2  0  0  0
  4 11  1  0  0  0
  5  6  1  0  0  0
  5 12  1  0  0  0
  6  9  1  0  0  0
  7  8  1  0  0  0
  8  9  2  0  0  0
  8 14  1  0  0  0
 13 14  1  0  0  0
 13 17  1  0  0  0
 14 15  2  0  0  0
 15 16  1  0  0  0
 16 17  1  0  0  0
 16 19  1  0  0  0
 16 26  1  0  0  0
 17 18  1  0  0  0
 17 27  1  0  0  0
 19 20  1  0  0  0
 19 25  2  0  0  0
 20 21  1  0  0  0
 21 22  1  0  0  0
 21 23  1  0  0  0
 21 24  1  0  0  0
 28 29  1  0  0  0
M  END
> <s_m_entry_id>
11

> <s_m_entry_name>
Structure1421

> <i_lp_mmshare_version>
47013

> <i_f3d_flags>
0

> <s_epik_input>
W2NIXTFjKFtPSF0pW2NIXVtjSF1jKGMxMiluYyhzMilDMz1OW0NIXShbQ0gyXVMzKUMoPU8pT1tDSDNd

> <s_epik_cmdline>
J2VwaWtfcHl0aG9uJywgJy1waCcsICc3LjAnLCAnLXRuJywgJzgnLCAnLW1hJywgJzIwMCcsICctaW1hZScsICc8aW5maWxlLm1hZT4nLCAnLW9tYWUnLCAnPG91dGZpbGUubWFlPic=

> <r_epik_Ionization_Penalty>
  0.0464

> <r_epik_Ionization_Penalty_Charging>
  0.0000

> <r_epik_Ionization_Penalty_Neutral>
  0.0464

> <r_epik_State_Penalty>
  0.0394

> <r_epik_Charging_Adjusted_Penalty>
0.039406476729982

> <i_epik_Tot_Q>
0

> <i_epik_Tot_abs_Q>
0

> <s_lp_Force_Field>
OPLS3e

> <r_lp_Energy>
5.04817

> <b_lp_Chiralities_Consistent>
1

> <s_lp_Variant>
CE1_M50_-2

> <s_m_job_name>
ligprep_38

> <s_m_Source_Path>
/home/andre/Documents/projects/Esterase/data/FINAL_STUFF/Compounds/MAE_external

> <s_m_Source_File>
11.mae

> <i_m_Source_File_Index>
1

> <s_epik_Chemistry_Notes>
This compound has an ester and may undergo hydrolysis at high or low pH. This compound has an imine and may undergo hydrolysis.

$$$$
