110
                    3D
 Schrodinger Suite 2021-1.
 91 94  0  0  1  0            999 V2000
   -0.5623   -2.4917    5.4746 C   0  0  0  0  0  0
   -0.0223   -2.5104    6.7576 C   0  0  0  0  0  0
   -0.7646   -3.0374    7.8109 C   0  0  0  0  0  0
   -2.0418   -3.5470    7.5919 C   0  0  0  0  0  0
   -2.5859   -3.5284    6.3102 C   0  0  0  0  0  0
   -1.8454   -2.9950    5.2417 C   0  0  0  0  0  0
   -2.2921   -2.9308    3.9091 N   0  0  0  0  0  0
   -3.4978   -3.2446    3.3890 C   0  0  0  0  0  0
   -4.4865   -3.6510    3.9981 O   0  0  0  0  0  0
   -3.5418   -3.0597    1.9669 C   0  0  0  0  0  0
   -3.6392   -1.8336    1.2884 C   0  0  0  0  0  0
   -3.8188   -0.3977    1.8192 C   0  0  0  0  0  0
   -2.4568    0.2749    2.0660 C   0  0  0  0  0  0
   -4.7152   -0.2971    3.0709 C   0  0  0  0  0  0
   -3.4049   -4.0915    1.0214 C   0  0  0  0  0  0
   -3.2627   -5.5590    1.2843 C   0  0  0  0  0  0
   -2.2263   -6.0343    2.0941 C   0  0  0  0  0  0
   -2.0942   -7.4002    2.3288 C   0  0  0  0  0  0
   -2.9967   -8.2898    1.7505 C   0  0  0  0  0  0
   -4.0304   -7.8258    0.9402 C   0  0  0  0  0  0
   -4.1636   -6.4599    0.7077 C   0  0  0  0  0  0
   -3.4536   -3.4933   -0.2349 C   0  0  0  0  0  0
   -3.3978   -4.1782   -1.5613 C   0  0  0  0  0  0
   -4.4393   -4.0287   -2.4815 C   0  0  0  0  0  0
   -4.3792   -4.6792   -3.7110 C   0  0  0  0  0  0
   -3.2814   -5.4818   -4.0155 C   0  0  0  0  0  0
   -3.2244   -6.1143   -5.2093 F   0  0  0  0  0  0
   -2.2432   -5.6401   -3.0998 C   0  0  0  0  0  0
   -2.3025   -4.9900   -1.8707 C   0  0  0  0  0  0
   -3.5174   -2.1158   -0.0711 N   0  0  0  0  0  0
   -3.4792   -1.1290   -1.1734 C   0  0  0  0  0  0
   -2.2155   -1.2093   -2.0754 C   0  0  0  0  0  0
   -0.8493   -0.9355   -1.3991 C   0  0  1  0  0  0
   -0.5721   -1.9246   -0.4255 O   0  0  0  0  0  0
    0.3044   -0.8771   -2.4327 C   0  0  0  0  0  0
    1.6679   -0.3776   -1.8956 C   0  0  1  0  0  0
    2.2124   -1.3243   -0.9928 O   0  0  0  0  0  0
    2.6716   -0.1170   -3.0440 C   0  0  0  0  0  0
    3.9849    0.5340   -2.5974 C   0  0  0  0  0  0
    5.0270   -0.1183   -2.5153 O   0  0  0  0  0  0
    3.8428    1.8484   -2.3280 O   0  0  0  0  0  0
    4.9541    2.6223   -1.8916 C   0  0  0  0  0  0
    4.5574    4.1015   -1.7571 C   0  0  0  0  0  0
    4.1749    4.7599   -3.0964 C   0  0  0  0  0  0
    3.8069    6.2469   -2.9515 C   0  0  0  0  0  0
    3.4315    6.9023   -4.2876 C   0  0  0  0  0  0
    0.0235   -2.0816    4.6640 H   0  0  0  0  0  0
    0.9685   -2.1190    6.9352 H   0  0  0  0  0  0
   -0.3455   -3.0534    8.8062 H   0  0  0  0  0  0
   -2.6091   -3.9577    8.4142 H   0  0  0  0  0  0
   -3.5739   -3.9388    6.1802 H   0  0  0  0  0  0
   -1.6014   -2.5928    3.2556 H   0  0  0  0  0  0
   -4.3544    0.2068    1.0893 H   0  0  0  0  0  0
   -1.8712    0.3388    1.1508 H   0  0  0  0  0  0
   -1.8659   -0.2755    2.7987 H   0  0  0  0  0  0
   -2.5796    1.2907    2.4434 H   0  0  0  0  0  0
   -5.6477   -0.8475    2.9393 H   0  0  0  0  0  0
   -4.9781    0.7411    3.2768 H   0  0  0  0  0  0
   -4.2231   -0.6729    3.9675 H   0  0  0  0  0  0
   -1.5187   -5.3496    2.5383 H   0  0  0  0  0  0
   -1.2939   -7.7678    2.9540 H   0  0  0  0  0  0
   -2.8933   -9.3496    1.9315 H   0  0  0  0  0  0
   -4.7254   -8.5219    0.4942 H   0  0  0  0  0  0
   -4.9671   -6.1034    0.0791 H   0  0  0  0  0  0
   -5.2962   -3.4149   -2.2446 H   0  0  0  0  0  0
   -5.1822   -4.5646   -4.4240 H   0  0  0  0  0  0
   -1.3963   -6.2656   -3.3406 H   0  0  0  0  0  0
   -1.4962   -5.1143   -1.1619 H   0  0  0  0  0  0
   -4.3880   -1.2465   -1.7636 H   0  0  0  0  0  0
   -3.5126   -0.1201   -0.7732 H   0  0  0  0  0  0
   -2.1737   -2.1577   -2.6078 H   0  0  0  0  0  0
   -2.3519   -0.4673   -2.8634 H   0  0  0  0  0  0
   -0.9038    0.0292   -0.8949 H   0  0  0  0  0  0
   -1.3232   -1.9862    0.1695 H   0  0  0  0  0  0
    0.4275   -1.8531   -2.9070 H   0  0  0  0  0  0
   -0.0012   -0.2015   -3.2334 H   0  0  0  0  0  0
    1.5034    0.5522   -1.3477 H   0  0  0  0  0  0
    1.5352   -1.5544   -0.3514 H   0  0  0  0  0  0
    2.9005   -1.0558   -3.5502 H   0  0  0  0  0  0
    2.2154    0.5251   -3.7980 H   0  0  0  0  0  0
    5.2993    2.2452   -0.9276 H   0  0  0  0  0  0
    5.7846    2.5237   -2.5929 H   0  0  0  0  0  0
    3.7335    4.1933   -1.0476 H   0  0  0  0  0  0
    5.3946    4.6453   -1.3178 H   0  0  0  0  0  0
    5.0052    4.6592   -3.7973 H   0  0  0  0  0  0
    3.3343    4.2236   -3.5394 H   0  0  0  0  0  0
    2.9730    6.3520   -2.2560 H   0  0  0  0  0  0
    4.6432    6.7910   -2.5101 H   0  0  0  0  0  0
    3.1688    7.9510   -4.1463 H   0  0  0  0  0  0
    2.5753    6.4055   -4.7453 H   0  0  0  0  0  0
    4.2604    6.8618   -4.9952 H   0  0  0  0  0  0
  1  6  2  0  0  0
  1  2  1  0  0  0
  1 47  1  0  0  0
  2  3  2  0  0  0
  2 48  1  0  0  0
  3  4  1  0  0  0
  3 49  1  0  0  0
  4  5  2  0  0  0
  4 50  1  0  0  0
  5  6  1  0  0  0
  5 51  1  0  0  0
  6  7  1  0  0  0
  7  8  1  0  0  0
  7 52  1  0  0  0
  8  9  2  0  0  0
  8 10  1  0  0  0
 10 11  2  0  0  0
 10 15  1  0  0  0
 11 30  1  0  0  0
 11 12  1  0  0  0
 12 13  1  0  0  0
 12 14  1  0  0  0
 12 53  1  0  0  0
 13 54  1  0  0  0
 13 55  1  0  0  0
 13 56  1  0  0  0
 14 57  1  0  0  0
 14 58  1  0  0  0
 14 59  1  0  0  0
 15 16  1  0  0  0
 15 22  2  0  0  0
 16 21  1  0  0  0
 16 17  2  0  0  0
 17 18  1  0  0  0
 17 60  1  0  0  0
 18 19  2  0  0  0
 18 61  1  0  0  0
 19 20  1  0  0  0
 19 62  1  0  0  0
 20 21  2  0  0  0
 20 63  1  0  0  0
 21 64  1  0  0  0
 22 23  1  0  0  0
 22 30  1  0  0  0
 23 29  1  0  0  0
 23 24  2  0  0  0
 24 25  1  0  0  0
 24 65  1  0  0  0
 25 26  2  0  0  0
 25 66  1  0  0  0
 26 27  1  0  0  0
 26 28  1  0  0  0
 28 29  2  0  0  0
 28 67  1  0  0  0
 29 68  1  0  0  0
 30 31  1  0  0  0
 31 32  1  0  0  0
 31 69  1  0  0  0
 31 70  1  0  0  0
 32 33  1  0  0  0
 32 71  1  0  0  0
 32 72  1  0  0  0
 33 34  1  0  0  0
 33 35  1  0  0  0
 33 73  1  0  0  0
 34 74  1  0  0  0
 35 36  1  0  0  0
 35 75  1  0  0  0
 35 76  1  0  0  0
 36 37  1  0  0  0
 36 38  1  0  0  0
 36 77  1  0  0  0
 37 78  1  0  0  0
 38 39  1  0  0  0
 38 79  1  0  0  0
 38 80  1  0  0  0
 39 40  2  0  0  0
 39 41  1  0  0  0
 41 42  1  0  0  0
 42 43  1  0  0  0
 42 81  1  0  0  0
 42 82  1  0  0  0
 43 44  1  0  0  0
 43 83  1  0  0  0
 43 84  1  0  0  0
 44 45  1  0  0  0
 44 85  1  0  0  0
 44 86  1  0  0  0
 45 46  1  0  0  0
 45 87  1  0  0  0
 45 88  1  0  0  0
 46 89  1  0  0  0
 46 90  1  0  0  0
 46 91  1  0  0  0
M  END
> <s_m_entry_id>
110

> <s_m_entry_name>
entry

> <i_lp_mmshare_version>
47013

> <i_f3d_flags>
0

> <s_epik_input>
W2NIXTFbY0hdW2NIXVtjSF1bY0hdYzFbTkhdQyg9TyljMmMoW0NIXShbQ0gzXSlbQ0gzXSluKGMoLWMzW2NIXVtjSF1jKEYpW2NIXVtjSF0zKWMyLWM0W2NIXVtjSF1bY0hdW2NIXVtjSF00KVtDSDJdW0NIMl1bQ0BASF0oW09IXSlbQ0gyXVtDQEBIXShbT0hdKVtDSDJdQyg9TylPW0NIMl1bQ0gyXVtDSDJdW0NIMl1bQ0gzXQ==

> <s_epik_cmdline>
J2VwaWtfcHl0aG9uJywgJy1waCcsICc3LjQnLCAnLXRuJywgJzgnLCAnLW1hJywgJzIwMCcsICctaW1hZScsICc8aW5maWxlLm1hZT4nLCAnLW9tYWUnLCAnPG91dGZpbGUubWFlPic=

> <r_epik_Ionization_Penalty>
  0.0000

> <r_epik_Ionization_Penalty_Charging>
  0.0000

> <r_epik_Ionization_Penalty_Neutral>
  0.0000

> <r_epik_State_Penalty>
  0.0000

> <r_epik_Charging_Adjusted_Penalty>
0

> <i_epik_Tot_Q>
0

> <i_epik_Tot_abs_Q>
0

> <s_lp_Force_Field>
OPLS3e

> <r_lp_Energy>
46.931426

> <b_lp_Chiralities_Consistent>
1

> <s_lp_Variant>
M137-1

> <s_m_job_name>
ligprep_16

> <s_m_Source_Path>
/home/andre/Documents/projects/Esterase/data/FINAL_STUFF/Compounds/MAE_external

> <s_m_Source_File>
110.mae

> <i_m_Source_File_Index>
1

> <r_lp_tautomer_probability>
1

> <s_epik_Chemistry_Notes>
This compound has an ester and may undergo hydrolysis at high or low pH.

$$$$
