111
                    3D
 Schrodinger Suite 2021-1.
 94 97  0  0  1  0            999 V2000
   -6.6309   -0.6205    4.5914 C   0  0  0  0  0  0
   -7.8163   -1.0792    5.1593 C   0  0  0  0  0  0
   -8.9953   -0.3639    4.9676 C   0  0  0  0  0  0
   -8.9988    0.8079    4.2155 C   0  0  0  0  0  0
   -7.8153    1.2686    3.6446 C   0  0  0  0  0  0
   -6.6225    0.5489    3.8261 C   0  0  0  0  0  0
   -5.3734    0.9296    3.3032 N   0  0  0  0  0  0
   -5.0811    1.8806    2.3904 C   0  0  0  0  0  0
   -5.8779    2.6031    1.7931 O   0  0  0  0  0  0
   -3.6732    1.9905    2.1410 C   0  0  0  0  0  0
   -2.9468    1.2793    1.1734 C   0  0  0  0  0  0
   -3.3806    0.2490    0.1160 C   0  0  0  0  0  0
   -3.8938    0.9594   -1.1487 C   0  0  0  0  0  0
   -4.4028   -0.7847    0.6277 C   0  0  0  0  0  0
   -2.7701    2.7582    2.9035 C   0  0  0  0  0  0
   -3.0686    3.6310    4.0816 C   0  0  0  0  0  0
   -3.6530    3.0974    5.2343 C   0  0  0  0  0  0
   -3.9225    3.9199    6.3248 C   0  0  0  0  0  0
   -3.6033    5.2745    6.2628 C   0  0  0  0  0  0
   -3.0150    5.8134    5.1208 C   0  0  0  0  0  0
   -2.7468    4.9908    4.0301 C   0  0  0  0  0  0
   -1.5136    2.5892    2.3283 C   0  0  0  0  0  0
   -0.2190    3.1876    2.7709 C   0  0  0  0  0  0
    0.4647    4.0932    1.9549 C   0  0  0  0  0  0
    1.6657    4.6489    2.3871 C   0  0  0  0  0  0
    2.1753    4.3056    3.6378 C   0  0  0  0  0  0
    3.3421    4.8451    4.0571 F   0  0  0  0  0  0
    1.4912    3.4139    4.4614 C   0  0  0  0  0  0
    0.2906    2.8570    4.0291 C   0  0  0  0  0  0
   -1.6335    1.7236    1.2540 N   0  0  0  0  0  0
   -0.5096    1.2368    0.4426 C   0  0  0  0  0  0
    0.1776    0.0281    1.1162 C   0  0  0  0  0  0
    1.4032   -0.5113    0.3458 C   0  0  1  0  0  0
    2.3706    0.5164    0.2307 O   0  0  0  0  0  0
    2.0199   -1.7579    1.0289 C   0  0  0  0  0  0
    3.1014   -2.5088    0.2140 C   0  0  1  0  0  0
    4.2498   -1.6941    0.0560 O   0  0  0  0  0  0
    3.5075   -3.8385    0.8965 C   0  0  0  0  0  0
    4.4547   -4.7409    0.0910 C   0  0  0  0  0  0
    4.5887   -4.6324   -1.1304 O   0  0  0  0  0  0
    5.1003   -5.6214    0.8818 O   0  0  0  0  0  0
    6.0385   -6.5392    0.3325 C   0  0  0  0  0  0
    6.6751   -7.3851    1.4471 C   0  0  0  0  0  0
    5.6744   -8.3076    2.1733 C   0  0  0  0  0  0
    6.2779   -9.0972    3.3519 C   0  0  0  0  0  0
    7.3505  -10.1272    2.9479 C   0  0  0  0  0  0
    7.8541  -10.9605    4.1342 C   0  0  0  0  0  0
   -5.7211   -1.1827    4.7478 H   0  0  0  0  0  0
   -7.8211   -1.9849    5.7475 H   0  0  0  0  0  0
   -9.9147   -0.7189    5.4094 H   0  0  0  0  0  0
   -9.9166    1.3604    4.0777 H   0  0  0  0  0  0
   -7.8534    2.1869    3.0811 H   0  0  0  0  0  0
   -4.5919    0.4008    3.6614 H   0  0  0  0  0  0
   -2.5281   -0.3568   -0.1887 H   0  0  0  0  0  0
   -3.1250    1.5991   -1.5833 H   0  0  0  0  0  0
   -4.7599    1.5854   -0.9298 H   0  0  0  0  0  0
   -4.1931    0.2420   -1.9136 H   0  0  0  0  0  0
   -4.0830   -1.2301    1.5702 H   0  0  0  0  0  0
   -4.5245   -1.5965   -0.0906 H   0  0  0  0  0  0
   -5.3915   -0.3511    0.7739 H   0  0  0  0  0  0
   -3.8924    2.0462    5.2933 H   0  0  0  0  0  0
   -4.3750    3.5090    7.2152 H   0  0  0  0  0  0
   -3.8125    5.9128    7.1087 H   0  0  0  0  0  0
   -2.7689    6.8643    5.0808 H   0  0  0  0  0  0
   -2.2915    5.4119    3.1452 H   0  0  0  0  0  0
    0.0667    4.3666    0.9884 H   0  0  0  0  0  0
    2.1984    5.3451    1.7563 H   0  0  0  0  0  0
    1.8893    3.1565    5.4318 H   0  0  0  0  0  0
   -0.2403    2.1680    4.6702 H   0  0  0  0  0  0
   -0.8514    1.0018   -0.5650 H   0  0  0  0  0  0
    0.1997    2.0492    0.2977 H   0  0  0  0  0  0
    0.4822    0.3011    2.1283 H   0  0  0  0  0  0
   -0.5527   -0.7748    1.2284 H   0  0  0  0  0  0
    1.0851   -0.7852   -0.6614 H   0  0  0  0  0  0
    2.6404    0.7812    1.1134 H   0  0  0  0  0  0
    2.4177   -1.4849    2.0083 H   0  0  0  0  0  0
    1.2105   -2.4620    1.2290 H   0  0  0  0  0  0
    2.6994   -2.7222   -0.7782 H   0  0  0  0  0  0
    3.9790   -0.8634   -0.3433 H   0  0  0  0  0  0
    3.9625   -3.6254    1.8647 H   0  0  0  0  0  0
    2.6108   -4.4217    1.1064 H   0  0  0  0  0  0
    5.5489   -7.1860   -0.3975 H   0  0  0  0  0  0
    6.8193   -5.9888   -0.1955 H   0  0  0  0  0  0
    7.4691   -7.9866    1.0044 H   0  0  0  0  0  0
    7.1625   -6.7250    2.1663 H   0  0  0  0  0  0
    4.8472   -7.7074    2.5553 H   0  0  0  0  0  0
    5.2312   -9.0023    1.4581 H   0  0  0  0  0  0
    6.6954   -8.3994    4.0794 H   0  0  0  0  0  0
    5.4681   -9.6152    3.8680 H   0  0  0  0  0  0
    6.9478  -10.7968    2.1868 H   0  0  0  0  0  0
    8.2010   -9.6201    2.4918 H   0  0  0  0  0  0
    8.6132  -11.6748    3.8140 H   0  0  0  0  0  0
    7.0428  -11.5251    4.5948 H   0  0  0  0  0  0
    8.2996  -10.3269    4.9018 H   0  0  0  0  0  0
  1  6  2  0  0  0
  1  2  1  0  0  0
  1 48  1  0  0  0
  2  3  2  0  0  0
  2 49  1  0  0  0
  3  4  1  0  0  0
  3 50  1  0  0  0
  4  5  2  0  0  0
  4 51  1  0  0  0
  5  6  1  0  0  0
  5 52  1  0  0  0
  6  7  1  0  0  0
  7  8  1  0  0  0
  7 53  1  0  0  0
  8  9  2  0  0  0
  8 10  1  0  0  0
 10 11  2  0  0  0
 10 15  1  0  0  0
 11 30  1  0  0  0
 11 12  1  0  0  0
 12 13  1  0  0  0
 12 14  1  0  0  0
 12 54  1  0  0  0
 13 55  1  0  0  0
 13 56  1  0  0  0
 13 57  1  0  0  0
 14 58  1  0  0  0
 14 59  1  0  0  0
 14 60  1  0  0  0
 15 16  1  0  0  0
 15 22  2  0  0  0
 16 21  1  0  0  0
 16 17  2  0  0  0
 17 18  1  0  0  0
 17 61  1  0  0  0
 18 19  2  0  0  0
 18 62  1  0  0  0
 19 20  1  0  0  0
 19 63  1  0  0  0
 20 21  2  0  0  0
 20 64  1  0  0  0
 21 65  1  0  0  0
 22 23  1  0  0  0
 22 30  1  0  0  0
 23 29  1  0  0  0
 23 24  2  0  0  0
 24 25  1  0  0  0
 24 66  1  0  0  0
 25 26  2  0  0  0
 25 67  1  0  0  0
 26 27  1  0  0  0
 26 28  1  0  0  0
 28 29  2  0  0  0
 28 68  1  0  0  0
 29 69  1  0  0  0
 30 31  1  0  0  0
 31 32  1  0  0  0
 31 70  1  0  0  0
 31 71  1  0  0  0
 32 33  1  0  0  0
 32 72  1  0  0  0
 32 73  1  0  0  0
 33 34  1  0  0  0
 33 35  1  0  0  0
 33 74  1  0  0  0
 34 75  1  0  0  0
 35 36  1  0  0  0
 35 76  1  0  0  0
 35 77  1  0  0  0
 36 37  1  0  0  0
 36 38  1  0  0  0
 36 78  1  0  0  0
 37 79  1  0  0  0
 38 39  1  0  0  0
 38 80  1  0  0  0
 38 81  1  0  0  0
 39 40  2  0  0  0
 39 41  1  0  0  0
 41 42  1  0  0  0
 42 43  1  0  0  0
 42 82  1  0  0  0
 42 83  1  0  0  0
 43 44  1  0  0  0
 43 84  1  0  0  0
 43 85  1  0  0  0
 44 45  1  0  0  0
 44 86  1  0  0  0
 44 87  1  0  0  0
 45 46  1  0  0  0
 45 88  1  0  0  0
 45 89  1  0  0  0
 46 47  1  0  0  0
 46 90  1  0  0  0
 46 91  1  0  0  0
 47 92  1  0  0  0
 47 93  1  0  0  0
 47 94  1  0  0  0
M  END
> <s_m_entry_id>
111

> <s_m_entry_name>
entry

> <i_lp_mmshare_version>
47013

> <i_f3d_flags>
0

> <s_epik_input>
W2NIXTFbY0hdW2NIXVtjSF1bY0hdYzFbTkhdQyg9TyljMmMoW0NIXShbQ0gzXSlbQ0gzXSluKGMoLWMzW2NIXVtjSF1jKEYpW2NIXVtjSF0zKWMyLWM0W2NIXVtjSF1bY0hdW2NIXVtjSF00KVtDSDJdW0NIMl1bQ0BASF0oW09IXSlbQ0gyXVtDQEBIXShbT0hdKVtDSDJdQyg9TylPW0NIMl1bQ0gyXVtDSDJdW0NIMl1bQ0gyXVtDSDNd

> <s_epik_cmdline>
J2VwaWtfcHl0aG9uJywgJy1waCcsICc3LjQnLCAnLXRuJywgJzgnLCAnLW1hJywgJzIwMCcsICctaW1hZScsICc8aW5maWxlLm1hZT4nLCAnLW9tYWUnLCAnPG91dGZpbGUubWFlPic=

> <r_epik_Ionization_Penalty>
  0.0000

> <r_epik_Ionization_Penalty_Charging>
  0.0000

> <r_epik_Ionization_Penalty_Neutral>
  0.0000

> <r_epik_State_Penalty>
  0.0000

> <r_epik_Charging_Adjusted_Penalty>
0

> <i_epik_Tot_Q>
0

> <i_epik_Tot_abs_Q>
0

> <s_lp_Force_Field>
OPLS3e

> <r_lp_Energy>
46.508152

> <b_lp_Chiralities_Consistent>
1

> <s_lp_Variant>
M138-1

> <s_m_job_name>
ligprep_17

> <s_m_Source_Path>
/home/andre/Documents/projects/Esterase/data/FINAL_STUFF/Compounds/MAE_external

> <s_m_Source_File>
111.mae

> <i_m_Source_File_Index>
1

> <r_lp_tautomer_probability>
1

> <s_epik_Chemistry_Notes>
This compound has an ester and may undergo hydrolysis at high or low pH.

$$$$
