112
                    3D
 Schrodinger Suite 2021-1.
 88 91  0  0  1  0            999 V2000
   -1.5780    5.0639    6.9734 C   0  0  0  0  0  0
   -1.7293    5.7082    8.1983 C   0  0  0  0  0  0
   -1.9607    4.9582    9.3483 C   0  0  0  0  0  0
   -2.0411    3.5695    9.2842 C   0  0  0  0  0  0
   -1.8904    2.9220    8.0606 C   0  0  0  0  0  0
   -1.6606    3.6709    6.8941 C   0  0  0  0  0  0
   -1.4868    3.1215    5.6104 N   0  0  0  0  0  0
   -1.6186    1.8436    5.1961 C   0  0  0  0  0  0
   -1.9504    0.8738    5.8766 O   0  0  0  0  0  0
   -1.3343    1.6897    3.7984 C   0  0  0  0  0  0
   -0.0598    1.6157    3.2167 C   0  0  0  0  0  0
    1.3466    1.6403    3.8405 C   0  0  0  0  0  0
    1.4827    0.7218    5.0704 C   0  0  0  0  0  0
    1.7834    3.0812    4.1599 C   0  0  0  0  0  0
   -2.2970    1.7052    2.7701 C   0  0  0  0  0  0
   -3.7839    1.8095    2.9103 C   0  0  0  0  0  0
   -4.3607    2.8881    3.5882 C   0  0  0  0  0  0
   -5.7449    2.9784    3.7066 C   0  0  0  0  0  0
   -6.5512    1.9912    3.1447 C   0  0  0  0  0  0
   -5.9858    0.9149    2.4646 C   0  0  0  0  0  0
   -4.6015    0.8244    2.3473 C   0  0  0  0  0  0
   -1.6066    1.5852    1.5648 C   0  0  0  0  0  0
   -2.1846    1.5791    0.1835 C   0  0  0  0  0  0
   -1.9990    0.4973   -0.6825 C   0  0  0  0  0  0
   -2.5523    0.5216   -1.9598 C   0  0  0  0  0  0
   -3.3045    1.6212   -2.3661 C   0  0  0  0  0  0
   -3.8425    1.6443   -3.6063 F   0  0  0  0  0  0
   -3.5092    2.6959   -1.5043 C   0  0  0  0  0  0
   -2.9503    2.6739   -0.2294 C   0  0  0  0  0  0
   -0.2483    1.5375    1.8429 N   0  0  0  0  0  0
    0.8175    1.4095    0.8392 C   0  0  0  0  0  0
    1.3115   -0.0524    0.7175 C   0  0  0  0  0  0
    2.3601   -0.2897   -0.3937 C   0  0  1  0  0  0
    2.8037   -1.6272   -0.2685 O   0  0  0  0  0  0
    1.8274   -0.0259   -1.8272 C   0  0  0  0  0  0
    2.8376   -0.2658   -2.9814 C   0  0  1  0  0  0
    3.0505   -1.6516   -3.1647 O   0  0  0  0  0  0
    2.3752    0.3039   -4.3421 C   0  0  0  0  0  0
    2.5045    1.8263   -4.4390 C   0  0  0  0  0  0
    3.5723    2.3562   -4.7510 O   0  0  0  0  0  0
    1.3560    2.4653   -4.1394 O   0  0  0  0  0  0
    1.2895    3.8876   -4.1703 C   0  0  0  0  0  0
   -0.0446    4.4019   -3.5930 C   0  0  0  0  0  0
   -0.2045    4.0390   -2.1059 C   0  0  0  0  0  0
   -1.2552    3.9329   -4.4211 C   0  0  0  0  0  0
   -1.3980    5.6561    6.0872 H   0  0  0  0  0  0
   -1.6670    6.7849    8.2566 H   0  0  0  0  0  0
   -2.0772    5.4575   10.2988 H   0  0  0  0  0  0
   -2.2177    2.9949   10.1815 H   0  0  0  0  0  0
   -1.9496    1.8458    8.0534 H   0  0  0  0  0  0
   -1.2281    3.7922    4.9019 H   0  0  0  0  0  0
    2.0869    1.2616    3.1393 H   0  0  0  0  0  0
    1.1201   -0.2842    4.8557 H   0  0  0  0  0  0
    0.9353    1.0995    5.9334 H   0  0  0  0  0  0
    2.5260    0.6339    5.3757 H   0  0  0  0  0  0
    1.7653    3.7068    3.2666 H   0  0  0  0  0  0
    2.7994    3.1060    4.5554 H   0  0  0  0  0  0
    1.1368    3.5463    4.9035 H   0  0  0  0  0  0
   -3.7413    3.6611    4.0185 H   0  0  0  0  0  0
   -6.1911    3.8108    4.2305 H   0  0  0  0  0  0
   -7.6250    2.0611    3.2370 H   0  0  0  0  0  0
   -6.6177    0.1536    2.0315 H   0  0  0  0  0  0
   -4.1656   -0.0121    1.8203 H   0  0  0  0  0  0
   -1.4398   -0.3695   -0.3700 H   0  0  0  0  0  0
   -2.4043   -0.3123   -2.6299 H   0  0  0  0  0  0
   -4.0953    3.5446   -1.8242 H   0  0  0  0  0  0
   -3.1105    3.5110    0.4349 H   0  0  0  0  0  0
    0.4384    1.7737   -0.1121 H   0  0  0  0  0  0
    1.6324    2.0901    1.0878 H   0  0  0  0  0  0
    1.7395   -0.3605    1.6721 H   0  0  0  0  0  0
    0.4683   -0.7241    0.5610 H   0  0  0  0  0  0
    3.2217    0.3534   -0.2088 H   0  0  0  0  0  0
    3.4189   -1.8110   -0.9831 H   0  0  0  0  0  0
    0.9235   -0.6121   -2.0033 H   0  0  0  0  0  0
    1.5120    1.0148   -1.8754 H   0  0  0  0  0  0
    3.8029    0.1701   -2.7157 H   0  0  0  0  0  0
    2.2135   -2.0610   -3.3959 H   0  0  0  0  0  0
    2.9728   -0.1240   -5.1484 H   0  0  0  0  0  0
    1.3421    0.0151   -4.5402 H   0  0  0  0  0  0
    2.1167    4.3136   -3.5992 H   0  0  0  0  0  0
    1.4086    4.2360   -5.1976 H   0  0  0  0  0  0
   -0.0149    5.4906   -3.6555 H   0  0  0  0  0  0
   -0.3043    2.9620   -1.9712 H   0  0  0  0  0  0
   -1.0907    4.5091   -1.6789 H   0  0  0  0  0  0
    0.6528    4.3703   -1.5190 H   0  0  0  0  0  0
   -1.3529    2.8466   -4.4093 H   0  0  0  0  0  0
   -1.1661    4.2447   -5.4622 H   0  0  0  0  0  0
   -2.1852    4.3510   -4.0343 H   0  0  0  0  0  0
  1  6  2  0  0  0
  1  2  1  0  0  0
  1 46  1  0  0  0
  2  3  2  0  0  0
  2 47  1  0  0  0
  3  4  1  0  0  0
  3 48  1  0  0  0
  4  5  2  0  0  0
  4 49  1  0  0  0
  5  6  1  0  0  0
  5 50  1  0  0  0
  6  7  1  0  0  0
  7  8  1  0  0  0
  7 51  1  0  0  0
  8  9  2  0  0  0
  8 10  1  0  0  0
 10 11  2  0  0  0
 10 15  1  0  0  0
 11 30  1  0  0  0
 11 12  1  0  0  0
 12 13  1  0  0  0
 12 14  1  0  0  0
 12 52  1  0  0  0
 13 53  1  0  0  0
 13 54  1  0  0  0
 13 55  1  0  0  0
 14 56  1  0  0  0
 14 57  1  0  0  0
 14 58  1  0  0  0
 15 16  1  0  0  0
 15 22  2  0  0  0
 16 21  1  0  0  0
 16 17  2  0  0  0
 17 18  1  0  0  0
 17 59  1  0  0  0
 18 19  2  0  0  0
 18 60  1  0  0  0
 19 20  1  0  0  0
 19 61  1  0  0  0
 20 21  2  0  0  0
 20 62  1  0  0  0
 21 63  1  0  0  0
 22 23  1  0  0  0
 22 30  1  0  0  0
 23 29  1  0  0  0
 23 24  2  0  0  0
 24 25  1  0  0  0
 24 64  1  0  0  0
 25 26  2  0  0  0
 25 65  1  0  0  0
 26 27  1  0  0  0
 26 28  1  0  0  0
 28 29  2  0  0  0
 28 66  1  0  0  0
 29 67  1  0  0  0
 30 31  1  0  0  0
 31 32  1  0  0  0
 31 68  1  0  0  0
 31 69  1  0  0  0
 32 33  1  0  0  0
 32 70  1  0  0  0
 32 71  1  0  0  0
 33 34  1  0  0  0
 33 35  1  0  0  0
 33 72  1  0  0  0
 34 73  1  0  0  0
 35 36  1  0  0  0
 35 74  1  0  0  0
 35 75  1  0  0  0
 36 37  1  0  0  0
 36 38  1  0  0  0
 36 76  1  0  0  0
 37 77  1  0  0  0
 38 39  1  0  0  0
 38 78  1  0  0  0
 38 79  1  0  0  0
 39 40  2  0  0  0
 39 41  1  0  0  0
 41 42  1  0  0  0
 42 43  1  0  0  0
 42 80  1  0  0  0
 42 81  1  0  0  0
 43 44  1  0  0  0
 43 45  1  0  0  0
 43 82  1  0  0  0
 44 83  1  0  0  0
 44 84  1  0  0  0
 44 85  1  0  0  0
 45 86  1  0  0  0
 45 87  1  0  0  0
 45 88  1  0  0  0
M  END
> <s_m_entry_id>
112

> <s_m_entry_name>
entry

> <i_lp_mmshare_version>
47013

> <i_f3d_flags>
0

> <s_epik_input>
W2NIXTFbY0hdW2NIXVtjSF1bY0hdYzFbTkhdQyg9TyljMmMoW0NIXShbQ0gzXSlbQ0gzXSluKGMoLWMzW2NIXVtjSF1jKEYpW2NIXVtjSF0zKWMyLWM0W2NIXVtjSF1bY0hdW2NIXVtjSF00KVtDSDJdW0NIMl1bQ0BASF0oW09IXSlbQ0gyXVtDQEBIXShbT0hdKVtDSDJdQyg9TylPW0NIMl1bQ0hdKFtDSDNdKVtDSDNd

> <s_epik_cmdline>
J2VwaWtfcHl0aG9uJywgJy1waCcsICc3LjQnLCAnLXRuJywgJzgnLCAnLW1hJywgJzIwMCcsICctaW1hZScsICc8aW5maWxlLm1hZT4nLCAnLW9tYWUnLCAnPG91dGZpbGUubWFlPic=

> <r_epik_Ionization_Penalty>
  0.0000

> <r_epik_Ionization_Penalty_Charging>
  0.0000

> <r_epik_Ionization_Penalty_Neutral>
  0.0000

> <r_epik_State_Penalty>
  0.0000

> <r_epik_Charging_Adjusted_Penalty>
0

> <i_epik_Tot_Q>
0

> <i_epik_Tot_abs_Q>
0

> <s_lp_Force_Field>
OPLS3e

> <r_lp_Energy>
44.668173

> <b_lp_Chiralities_Consistent>
1

> <s_lp_Variant>
142859381-1

> <s_m_job_name>
ligprep_18

> <s_m_Source_Path>
/home/andre/Documents/projects/Esterase/data/FINAL_STUFF/Compounds/MAE_external

> <s_m_Source_File>
112.mae

> <i_m_Source_File_Index>
1

> <r_lp_tautomer_probability>
1

> <s_epik_Chemistry_Notes>
This compound has an ester and may undergo hydrolysis at high or low pH.

$$$$
