113
                    3D
 Schrodinger Suite 2021-1.
 82 85  0  0  1  0            999 V2000
    1.2252    6.2868   -3.4156 C   0  0  0  0  0  0
    1.5551    7.3798   -4.2124 C   0  0  0  0  0  0
    0.5463    8.1993   -4.7116 C   0  0  0  0  0  0
   -0.7896    7.9374   -4.4188 C   0  0  0  0  0  0
   -1.1234    6.8442   -3.6234 C   0  0  0  0  0  0
   -0.1124    6.0070   -3.1226 C   0  0  0  0  0  0
   -0.3403    4.8888   -2.3004 N   0  0  0  0  0  0
   -1.4982    4.2473   -2.0335 C   0  0  0  0  0  0
   -2.6074    4.4954   -2.5048 O   0  0  0  0  0  0
   -1.3276    3.1820   -1.0867 C   0  0  0  0  0  0
   -0.7592    1.9324   -1.3634 C   0  0  0  0  0  0
   -0.2560    1.3953   -2.7151 C   0  0  0  0  0  0
   -1.2017    0.3389   -3.3188 C   0  0  0  0  0  0
    1.2230    0.9632   -2.7252 C   0  0  0  0  0  0
   -1.6184    3.2597    0.2872 C   0  0  0  0  0  0
   -2.1981    4.4192    1.0370 C   0  0  0  0  0  0
   -1.5920    5.6782    0.9752 C   0  0  0  0  0  0
   -2.1358    6.7503    1.6774 C   0  0  0  0  0  0
   -3.2842    6.5621    2.4429 C   0  0  0  0  0  0
   -3.8937    5.3115    2.5126 C   0  0  0  0  0  0
   -3.3502    4.2399    1.8093 C   0  0  0  0  0  0
   -1.2801    2.0246    0.8346 C   0  0  0  0  0  0
   -1.3955    1.6048    2.2645 C   0  0  0  0  0  0
   -2.2334    0.5486    2.6334 C   0  0  0  0  0  0
   -2.3436    0.1828    3.9721 C   0  0  0  0  0  0
   -1.6232    0.8793    4.9404 C   0  0  0  0  0  0
   -1.7316    0.5246    6.2406 F   0  0  0  0  0  0
   -0.7956    1.9409    4.5806 C   0  0  0  0  0  0
   -0.6840    2.3061    3.2419 C   0  0  0  0  0  0
   -0.7647    1.2167   -0.1688 N   0  0  0  0  0  0
   -0.1893   -0.1161    0.0611 C   0  0  0  0  0  0
    1.2273   -0.0220    0.6768 C   0  0  0  0  0  0
    1.8922   -1.3917    0.9381 C   0  0  1  0  0  0
    2.0199   -2.0913   -0.2862 O   0  0  0  0  0  0
    3.2732   -1.2493    1.6264 C   0  0  0  0  0  0
    3.9158   -2.5641    2.1327 C   0  0  1  0  0  0
    4.2592   -3.3934    1.0363 O   0  0  0  0  0  0
    5.1796   -2.2886    2.9852 C   0  0  0  0  0  0
    5.8075   -3.5104    3.6742 C   0  0  0  0  0  0
    5.2287   -4.5969    3.7520 O   0  0  0  0  0  0
    7.0358   -3.2345    4.1575 O   0  0  0  0  0  0
    7.8001   -4.2389    4.8165 C   0  0  0  0  0  0
    9.1505   -3.6708    5.2763 C   0  0  0  0  0  0
    8.9912   -2.6665    6.1384 F   0  0  0  0  0  0
    9.8681   -4.6132    5.8864 F   0  0  0  0  0  0
    9.8700   -3.2219    4.2477 F   0  0  0  0  0  0
    2.0159    5.6577   -3.0317 H   0  0  0  0  0  0
    2.5892    7.5916   -4.4413 H   0  0  0  0  0  0
    0.8025    9.0482   -5.3283 H   0  0  0  0  0  0
   -1.5653    8.5826   -4.8041 H   0  0  0  0  0  0
   -2.1661    6.6810   -3.4029 H   0  0  0  0  0  0
    0.4879    4.5168   -1.8597 H   0  0  0  0  0  0
   -0.2913    2.2188   -3.4290 H   0  0  0  0  0  0
   -2.1990    0.7533   -3.4716 H   0  0  0  0  0  0
   -1.3114   -0.5445   -2.6930 H   0  0  0  0  0  0
   -0.8406    0.0001   -4.2905 H   0  0  0  0  0  0
    1.8605    1.7217   -2.2695 H   0  0  0  0  0  0
    1.5733    0.8192   -3.7479 H   0  0  0  0  0  0
    1.3951    0.0215   -2.2095 H   0  0  0  0  0  0
   -0.6975    5.8288    0.3891 H   0  0  0  0  0  0
   -1.6684    7.7227    1.6295 H   0  0  0  0  0  0
   -3.7060    7.3940    2.9876 H   0  0  0  0  0  0
   -4.7842    5.1737    3.1079 H   0  0  0  0  0  0
   -3.8273    3.2720    1.8634 H   0  0  0  0  0  0
   -2.8028    0.0150    1.8862 H   0  0  0  0  0  0
   -2.9884   -0.6349    4.2588 H   0  0  0  0  0  0
   -0.2446    2.4805    5.3367 H   0  0  0  0  0  0
   -0.0455    3.1331    2.9656 H   0  0  0  0  0  0
   -0.8468   -0.6791    0.7213 H   0  0  0  0  0  0
   -0.1920   -0.6886   -0.8610 H   0  0  0  0  0  0
    1.8724    0.5792    0.0351 H   0  0  0  0  0  0
    1.1665    0.5193    1.6218 H   0  0  0  0  0  0
    1.2369   -1.9744    1.5876 H   0  0  0  0  0  0
    2.6025   -1.5919   -0.8634 H   0  0  0  0  0  0
    3.9668   -0.7308    0.9615 H   0  0  0  0  0  0
    3.1480   -0.5909    2.4875 H   0  0  0  0  0  0
    3.1821   -3.0954    2.7419 H   0  0  0  0  0  0
    3.4693   -3.5423    0.5104 H   0  0  0  0  0  0
    5.9388   -1.8117    2.3639 H   0  0  0  0  0  0
    4.9325   -1.5704    3.7673 H   0  0  0  0  0  0
    7.2477   -4.6191    5.6773 H   0  0  0  0  0  0
    7.9660   -5.0784    4.1392 H   0  0  0  0  0  0
  1  2  2  0  0  0
  1  6  1  0  0  0
  1 47  1  0  0  0
  2  3  1  0  0  0
  2 48  1  0  0  0
  3  4  2  0  0  0
  3 49  1  0  0  0
  4  5  1  0  0  0
  4 50  1  0  0  0
  5  6  2  0  0  0
  5 51  1  0  0  0
  6  7  1  0  0  0
  7  8  1  0  0  0
  7 52  1  0  0  0
  8  9  2  0  0  0
  8 10  1  0  0  0
 10 11  2  0  0  0
 10 15  1  0  0  0
 11 12  1  0  0  0
 11 30  1  0  0  0
 12 13  1  0  0  0
 12 14  1  0  0  0
 12 53  1  0  0  0
 13 54  1  0  0  0
 13 55  1  0  0  0
 13 56  1  0  0  0
 14 57  1  0  0  0
 14 58  1  0  0  0
 14 59  1  0  0  0
 15 16  1  0  0  0
 15 22  2  0  0  0
 16 17  2  0  0  0
 16 21  1  0  0  0
 17 18  1  0  0  0
 17 60  1  0  0  0
 18 19  2  0  0  0
 18 61  1  0  0  0
 19 20  1  0  0  0
 19 62  1  0  0  0
 20 21  2  0  0  0
 20 63  1  0  0  0
 21 64  1  0  0  0
 22 23  1  0  0  0
 22 30  1  0  0  0
 23 24  2  0  0  0
 23 29  1  0  0  0
 24 25  1  0  0  0
 24 65  1  0  0  0
 25 26  2  0  0  0
 25 66  1  0  0  0
 26 27  1  0  0  0
 26 28  1  0  0  0
 28 29  2  0  0  0
 28 67  1  0  0  0
 29 68  1  0  0  0
 30 31  1  0  0  0
 31 32  1  0  0  0
 31 69  1  0  0  0
 31 70  1  0  0  0
 32 33  1  0  0  0
 32 71  1  0  0  0
 32 72  1  0  0  0
 33 34  1  0  0  0
 33 35  1  0  0  0
 33 73  1  0  0  0
 34 74  1  0  0  0
 35 36  1  0  0  0
 35 75  1  0  0  0
 35 76  1  0  0  0
 36 37  1  0  0  0
 36 38  1  0  0  0
 36 77  1  0  0  0
 37 78  1  0  0  0
 38 39  1  0  0  0
 38 79  1  0  0  0
 38 80  1  0  0  0
 39 40  2  0  0  0
 39 41  1  0  0  0
 41 42  1  0  0  0
 42 43  1  0  0  0
 42 81  1  0  0  0
 42 82  1  0  0  0
 43 44  1  0  0  0
 43 45  1  0  0  0
 43 46  1  0  0  0
M  END
> <s_m_entry_id>
113

> <s_m_entry_name>
entry

> <i_lp_mmshare_version>
47013

> <i_f3d_flags>
0

> <s_epik_input>
W2NIXTFbY0hdW2NIXVtjSF1bY0hdYzFbTkhdQyg9TyljMmMoW0NIXShbQ0gzXSlbQ0gzXSluKGMoLWMzW2NIXVtjSF1jKEYpW2NIXVtjSF0zKWMyLWM0W2NIXVtjSF1bY0hdW2NIXVtjSF00KVtDSDJdW0NIMl1bQ0BASF0oW09IXSlbQ0gyXVtDQEBIXShbT0hdKVtDSDJdQyg9TylPW0NIMl1DKEYpKEYpRg==

> <s_epik_cmdline>
J2VwaWtfcHl0aG9uJywgJy1waCcsICc3LjQnLCAnLXRuJywgJzgnLCAnLW1hJywgJzIwMCcsICctaW1hZScsICc8aW5maWxlLm1hZT4nLCAnLW9tYWUnLCAnPG91dGZpbGUubWFlPic=

> <r_epik_Ionization_Penalty>
  0.0000

> <r_epik_Ionization_Penalty_Charging>
  0.0000

> <r_epik_Ionization_Penalty_Neutral>
  0.0000

> <r_epik_State_Penalty>
  0.0000

> <r_epik_Charging_Adjusted_Penalty>
0

> <i_epik_Tot_Q>
0

> <i_epik_Tot_abs_Q>
0

> <s_lp_Force_Field>
OPLS3e

> <r_lp_Energy>
43.763503

> <b_lp_Chiralities_Consistent>
1

> <s_lp_Variant>
M139-1

> <s_m_job_name>
ligprep_19

> <s_m_Source_Path>
/home/andre/Documents/projects/Esterase/data/FINAL_STUFF/Compounds/MAE_external

> <s_m_Source_File>
113.mae

> <i_m_Source_File_Index>
1

> <r_lp_tautomer_probability>
1

> <s_epik_Chemistry_Notes>
This compound has an ester and may undergo hydrolysis at high or low pH.

$$$$
