115
                    3D
 Schrodinger Suite 2021-1.
 86 90  0  0  1  0            999 V2000
   -4.2844    5.6431   -3.0787 C   0  0  0  0  0  0
   -5.1425    6.6322   -3.5516 C   0  0  0  0  0  0
   -4.7412    7.9650   -3.5232 C   0  0  0  0  0  0
   -3.4903    8.3178   -3.0236 C   0  0  0  0  0  0
   -2.6291    7.3310   -2.5504 C   0  0  0  0  0  0
   -3.0230    5.9827   -2.5821 C   0  0  0  0  0  0
   -2.2370    4.9100   -2.1239 N   0  0  0  0  0  0
   -0.9351    4.8920   -1.7685 C   0  0  0  0  0  0
   -0.1471    5.8367   -1.7923 O   0  0  0  0  0  0
   -0.5065    3.5964   -1.3272 C   0  0  0  0  0  0
   -0.2185    2.4947   -2.1485 C   0  0  0  0  0  0
   -0.2124    2.3289   -3.6776 C   0  0  0  0  0  0
    0.4198    3.5217   -4.4215 C   0  0  0  0  0  0
   -1.6258    2.0229   -4.2041 C   0  0  0  0  0  0
   -0.4008    3.1952    0.0202 C   0  0  0  0  0  0
   -0.6486    4.0172    1.2466 C   0  0  0  0  0  0
   -1.8742    4.6667    1.4251 C   0  0  0  0  0  0
   -2.1018    5.4275    2.5686 C   0  0  0  0  0  0
   -1.1043    5.5358    3.5347 C   0  0  0  0  0  0
    0.1187    4.8904    3.3673 C   0  0  0  0  0  0
    0.3463    4.1311    2.2228 C   0  0  0  0  0  0
    0.0068    1.8644    0.0085 C   0  0  0  0  0  0
    0.2939    0.9797    1.1727 C   0  0  0  0  0  0
    1.6149    0.7380    1.5565 C   0  0  0  0  0  0
    1.8804   -0.0836    2.6480 C   0  0  0  0  0  0
    0.8251   -0.6569    3.3543 C   0  0  0  0  0  0
    1.0848   -1.4571    4.4127 F   0  0  0  0  0  0
   -0.4950   -0.4094    2.9812 C   0  0  0  0  0  0
   -0.7620    0.4138    1.8901 C   0  0  0  0  0  0
    0.0658    1.4311   -1.3041 N   0  0  0  0  0  0
    0.4415    0.0743   -1.7214 C   0  0  0  0  0  0
    1.9576   -0.0318   -1.9963 C   0  0  0  0  0  0
    2.4276   -1.4670   -2.3137 C   0  0  1  0  0  0
    1.8578   -1.8882   -3.5388 O   0  0  0  0  0  0
    3.9695   -1.5834   -2.3571 C   0  0  0  0  0  0
    4.5214   -3.0325   -2.4146 C   0  0  1  0  0  0
    4.2802   -3.5932   -3.6892 O   0  0  0  0  0  0
    6.0405   -3.1405   -2.1436 C   0  0  0  0  0  0
    6.4479   -2.7487   -0.7189 C   0  0  0  0  0  0
    7.2225   -1.8104   -0.5184 O   0  0  0  0  0  0
    5.8476   -3.5246    0.2260 O   0  0  0  0  0  0
    6.0259   -3.2321    1.5588 C   0  0  0  0  0  0
    7.1866   -3.6359    2.2267 C   0  0  0  0  0  0
    7.3430   -3.3494    3.5801 C   0  0  0  0  0  0
    6.3350   -2.6729    4.2645 C   0  0  0  0  0  0
    5.1702   -2.2818    3.6069 C   0  0  0  0  0  0
    5.0137   -2.5640    2.2524 C   0  0  0  0  0  0
    6.4867   -2.3965    5.5793 F   0  0  0  0  0  0
   -4.6061    4.6114   -3.1044 H   0  0  0  0  0  0
   -6.1156    6.3669   -3.9379 H   0  0  0  0  0  0
   -5.4072    8.7325   -3.8890 H   0  0  0  0  0  0
   -3.1893    9.3548   -3.0002 H   0  0  0  0  0  0
   -1.6746    7.6432   -2.1585 H   0  0  0  0  0  0
   -2.7237    4.0273   -2.0732 H   0  0  0  0  0  0
    0.4075    1.4796   -3.9612 H   0  0  0  0  0  0
    1.3959    3.7763   -4.0065 H   0  0  0  0  0  0
   -0.2053    4.4134   -4.3838 H   0  0  0  0  0  0
    0.5657    3.2880   -5.4767 H   0  0  0  0  0  0
   -2.0355    1.1236   -3.7427 H   0  0  0  0  0  0
   -1.6182    1.8618   -5.2826 H   0  0  0  0  0  0
   -2.3170    2.8419   -4.0042 H   0  0  0  0  0  0
   -2.6540    4.5809    0.6827 H   0  0  0  0  0  0
   -3.0480    5.9295    2.7062 H   0  0  0  0  0  0
   -1.2806    6.1258    4.4221 H   0  0  0  0  0  0
    0.8874    4.9798    4.1205 H   0  0  0  0  0  0
    1.2980    3.6366    2.0952 H   0  0  0  0  0  0
    2.4343    1.1910    1.0179 H   0  0  0  0  0  0
    2.9007   -0.2706    2.9470 H   0  0  0  0  0  0
   -1.3082   -0.8532    3.5366 H   0  0  0  0  0  0
   -1.7853    0.6078    1.6021 H   0  0  0  0  0  0
    0.1520   -0.6277   -0.9387 H   0  0  0  0  0  0
   -0.1537   -0.2176   -2.5869 H   0  0  0  0  0  0
    2.2435    0.6382   -2.8086 H   0  0  0  0  0  0
    2.4980    0.3246   -1.1200 H   0  0  0  0  0  0
    2.0574   -2.1298   -1.5297 H   0  0  0  0  0  0
    2.1710   -1.3071   -4.2360 H   0  0  0  0  0  0
    4.3724   -0.9946   -3.1835 H   0  0  0  0  0  0
    4.3525   -1.1079   -1.4535 H   0  0  0  0  0  0
    3.9866   -3.6513   -1.6915 H   0  0  0  0  0  0
    3.3395   -3.5313   -3.8736 H   0  0  0  0  0  0
    6.3833   -4.1609   -2.3193 H   0  0  0  0  0  0
    6.5843   -2.5089   -2.8474 H   0  0  0  0  0  0
    7.9644   -4.1659    1.6966 H   0  0  0  0  0  0
    8.2409   -3.6532    4.0975 H   0  0  0  0  0  0
    4.3911   -1.7645    4.1471 H   0  0  0  0  0  0
    4.1098   -2.2646    1.7418 H   0  0  0  0  0  0
  1  2  2  0  0  0
  1  6  1  0  0  0
  1 49  1  0  0  0
  2  3  1  0  0  0
  2 50  1  0  0  0
  3  4  2  0  0  0
  3 51  1  0  0  0
  4  5  1  0  0  0
  4 52  1  0  0  0
  5  6  2  0  0  0
  5 53  1  0  0  0
  6  7  1  0  0  0
  7  8  1  0  0  0
  7 54  1  0  0  0
  8  9  2  0  0  0
  8 10  1  0  0  0
 10 11  2  0  0  0
 10 15  1  0  0  0
 11 12  1  0  0  0
 11 30  1  0  0  0
 12 13  1  0  0  0
 12 14  1  0  0  0
 12 55  1  0  0  0
 13 56  1  0  0  0
 13 57  1  0  0  0
 13 58  1  0  0  0
 14 59  1  0  0  0
 14 60  1  0  0  0
 14 61  1  0  0  0
 15 16  1  0  0  0
 15 22  2  0  0  0
 16 17  2  0  0  0
 16 21  1  0  0  0
 17 18  1  0  0  0
 17 62  1  0  0  0
 18 19  2  0  0  0
 18 63  1  0  0  0
 19 20  1  0  0  0
 19 64  1  0  0  0
 20 21  2  0  0  0
 20 65  1  0  0  0
 21 66  1  0  0  0
 22 23  1  0  0  0
 22 30  1  0  0  0
 23 24  2  0  0  0
 23 29  1  0  0  0
 24 25  1  0  0  0
 24 67  1  0  0  0
 25 26  2  0  0  0
 25 68  1  0  0  0
 26 27  1  0  0  0
 26 28  1  0  0  0
 28 29  2  0  0  0
 28 69  1  0  0  0
 29 70  1  0  0  0
 30 31  1  0  0  0
 31 32  1  0  0  0
 31 71  1  0  0  0
 31 72  1  0  0  0
 32 33  1  0  0  0
 32 73  1  0  0  0
 32 74  1  0  0  0
 33 34  1  0  0  0
 33 35  1  0  0  0
 33 75  1  0  0  0
 34 76  1  0  0  0
 35 36  1  0  0  0
 35 77  1  0  0  0
 35 78  1  0  0  0
 36 37  1  0  0  0
 36 38  1  0  0  0
 36 79  1  0  0  0
 37 80  1  0  0  0
 38 39  1  0  0  0
 38 81  1  0  0  0
 38 82  1  0  0  0
 39 40  2  0  0  0
 39 41  1  0  0  0
 41 42  1  0  0  0
 42 47  2  0  0  0
 42 43  1  0  0  0
 43 44  2  0  0  0
 43 83  1  0  0  0
 44 45  1  0  0  0
 44 84  1  0  0  0
 45 46  2  0  0  0
 45 48  1  0  0  0
 46 47  1  0  0  0
 46 85  1  0  0  0
 47 86  1  0  0  0
M  END
> <s_m_entry_id>
115

> <s_m_entry_name>
entry

> <i_lp_mmshare_version>
47013

> <i_f3d_flags>
0

> <s_epik_input>
W2NIXTFbY0hdW2NIXVtjSF1bY0hdYzFbTkhdQyg9TyljMmMoW0NIXShbQ0gzXSlbQ0gzXSluKGMoLWMzW2NIXVtjSF1jKEYpW2NIXVtjSF0zKWMyLWM0W2NIXVtjSF1bY0hdW2NIXVtjSF00KVtDSDJdW0NIMl1bQ0BASF0oW09IXSlbQ0gyXVtDQEBIXShbT0hdKVtDSDJdQyg9TylPYzVbY0hdW2NIXWMoRilbY0hdW2NIXTU=

> <s_epik_cmdline>
J2VwaWtfcHl0aG9uJywgJy1waCcsICc3LjQnLCAnLXRuJywgJzgnLCAnLW1hJywgJzIwMCcsICctaW1hZScsICc8aW5maWxlLm1hZT4nLCAnLW9tYWUnLCAnPG91dGZpbGUubWFlPic=

> <r_epik_Ionization_Penalty>
  0.0000

> <r_epik_Ionization_Penalty_Charging>
  0.0000

> <r_epik_Ionization_Penalty_Neutral>
  0.0000

> <r_epik_State_Penalty>
  0.0000

> <r_epik_Charging_Adjusted_Penalty>
0

> <i_epik_Tot_Q>
0

> <i_epik_Tot_abs_Q>
0

> <s_lp_Force_Field>
OPLS3e

> <r_lp_Energy>
56.794159

> <b_lp_Chiralities_Consistent>
1

> <s_lp_Variant>
127037168-1

> <s_m_job_name>
ligprep_20

> <s_m_Source_Path>
/home/andre/Documents/projects/Esterase/data/FINAL_STUFF/Compounds/MAE_external

> <s_m_Source_File>
115.mae

> <i_m_Source_File_Index>
1

> <r_lp_tautomer_probability>
1

$$$$
