117
                    3D
 Schrodinger Suite 2021-1.
 39 40  0  0  1  0            999 V2000
   -4.3477    0.9910    0.2527 C   0  0  0  0  0  0
   -3.0507    1.6927   -0.1616 C   0  0  0  0  0  0
   -1.9447    0.8423    0.1151 O   0  0  0  0  0  0
   -0.6838    1.2373   -0.1521 C   0  0  0  0  0  0
   -0.3811    2.3280   -0.6426 O   0  0  0  0  0  0
    0.1852    0.2108    0.2028 N   0  0  0  0  0  0
    1.5902    0.1941    0.1022 C   0  0  0  0  0  0
    2.2686   -1.0266   -0.0745 C   0  0  0  0  0  0
    3.6197   -1.1014   -0.1584 N   0  0  0  0  0  0
    4.3558    0.0394   -0.0593 C   0  0  0  0  0  0
    3.7549    1.2846    0.1318 C   0  0  0  0  0  0
    2.3648    1.3605    0.2160 C   0  0  0  0  0  0
    5.7587   -0.0165   -0.1308 N   0  0  0  0  0  0
    6.4649   -1.2469   -0.4898 C   0  0  0  0  0  0
    6.4942   -2.2740    0.6411 C   0  0  0  0  0  0
    6.7978   -1.8931    1.9536 C   0  0  0  0  0  0
    6.8227   -2.8461    2.9685 C   0  0  0  0  0  0
    6.5503   -4.1796    2.6712 C   0  0  0  0  0  0
    6.2543   -4.5678    1.3664 C   0  0  0  0  0  0
    6.2288   -3.6152    0.3510 C   0  0  0  0  0  0
    6.5754   -5.1052    3.6567 F   0  0  0  0  0  0
    1.5932   -2.2446   -0.1802 N   0  0  0  0  0  0
   -5.2117    1.6239    0.0497 H   0  0  0  0  0  0
   -4.3481    0.7594    1.3183 H   0  0  0  0  0  0
   -4.4834    0.0578   -0.2949 H   0  0  0  0  0  0
   -3.0805    1.9308   -1.2261 H   0  0  0  0  0  0
   -2.9461    2.6323    0.3833 H   0  0  0  0  0  0
   -0.2439   -0.6519    0.5038 H   0  0  0  0  0  0
    4.3490    2.1828    0.2211 H   0  0  0  0  0  0
    1.9095    2.3249    0.3834 H   0  0  0  0  0  0
    6.2509    0.8555   -0.2601 H   0  0  0  0  0  0
    6.0046   -1.6777   -1.3806 H   0  0  0  0  0  0
    7.4884   -0.9944   -0.7677 H   0  0  0  0  0  0
    7.0135   -0.8612    2.1891 H   0  0  0  0  0  0
    7.0530   -2.5520    3.9819 H   0  0  0  0  0  0
    6.0454   -5.6035    1.1424 H   0  0  0  0  0  0
    5.9973   -3.9213   -0.6589 H   0  0  0  0  0  0
    0.5851   -2.2636   -0.1370 H   0  0  0  0  0  0
    2.1279   -3.0916   -0.3077 H   0  0  0  0  0  0
  1  2  1  0  0  0
  1 23  1  0  0  0
  1 24  1  0  0  0
  1 25  1  0  0  0
  2  3  1  0  0  0
  2 26  1  0  0  0
  2 27  1  0  0  0
  3  4  1  0  0  0
  4  5  2  0  0  0
  4  6  1  0  0  0
  6  7  1  0  0  0
  6 28  1  0  0  0
  7 12  2  0  0  0
  7  8  1  0  0  0
  8  9  2  0  0  0
  8 22  1  0  0  0
  9 10  1  0  0  0
 10 11  2  0  0  0
 10 13  1  0  0  0
 11 12  1  0  0  0
 11 29  1  0  0  0
 12 30  1  0  0  0
 13 14  1  0  0  0
 13 31  1  0  0  0
 14 15  1  0  0  0
 14 32  1  0  0  0
 14 33  1  0  0  0
 15 20  1  0  0  0
 15 16  2  0  0  0
 16 17  1  0  0  0
 16 34  1  0  0  0
 17 18  2  0  0  0
 17 35  1  0  0  0
 18 19  1  0  0  0
 18 21  1  0  0  0
 19 20  2  0  0  0
 19 36  1  0  0  0
 20 37  1  0  0  0
 22 38  1  0  0  0
 22 39  1  0  0  0
M  END
> <s_m_entry_id>
117

> <s_m_entry_name>
entry

> <i_lp_mmshare_version>
47013

> <i_f3d_flags>
0

> <s_epik_input>
W0NIM11bQ0gyXU9DKD1PKVtOSF1jMWMoW05IMl0pbmMoW2NIXVtjSF0xKVtOSF1bQ0gyXWMyW2NIXVtjSF1jKEYpW2NIXVtjSF0y

> <s_epik_cmdline>
J2VwaWtfcHl0aG9uJywgJy1waCcsICc3LjQnLCAnLXRuJywgJzgnLCAnLW1hJywgJzIwMCcsICctaW1hZScsICc8aW5maWxlLm1hZT4nLCAnLW9tYWUnLCAnPG91dGZpbGUubWFlPic=

> <r_epik_Ionization_Penalty>
  0.0139

> <r_epik_Ionization_Penalty_Charging>
  0.0000

> <r_epik_Ionization_Penalty_Neutral>
  0.0139

> <r_epik_State_Penalty>
  0.0108

> <r_epik_Charging_Adjusted_Penalty>
0.0107533621163616

> <i_epik_Tot_Q>
0

> <i_epik_Tot_abs_Q>
0

> <s_lp_Force_Field>
OPLS3e

> <r_lp_Energy>
24.674513

> <b_lp_Chiralities_Consistent>
1

> <s_lp_Variant>
53276-1

> <s_m_job_name>
ligprep_23

> <s_m_Source_Path>
/home/andre/Documents/projects/Esterase/data/FINAL_STUFF/Compounds/MAE_external

> <s_m_Source_File>
117.mae

> <i_m_Source_File_Index>
1

> <s_epik_Chemistry_Notes>
This compound has an ester and may undergo hydrolysis at high or low pH.

$$$$
