118
                    3D
 Schrodinger Suite 2021-1.
 57 58  0  0  1  0            999 V2000
   -2.2482    3.1108    0.0567 C   0  0  0  0  0  0
   -1.7432    1.6751    0.2539 C   0  0  0  0  0  0
   -0.3706    1.4262   -0.4078 C   0  0  0  0  0  0
    0.2366    0.0264   -0.1316 C   0  0  1  0  0  0
   -0.5686   -1.0529   -0.8430 C   0  0  0  0  0  0
   -0.3984   -1.3707   -2.0239 O   0  0  0  0  0  0
   -1.4942   -1.5930   -0.0141 O   0  0  0  0  0  0
   -2.3798   -2.6208   -0.4485 C   0  0  0  0  0  0
   -3.5656   -2.0535   -1.2445 C   0  0  0  0  0  0
    1.6599    0.0032   -0.5624 N   0  0  2  0  0  0
    2.5054   -1.1924   -0.3035 C   0  0  1  0  0  0
    3.9376   -1.0143   -0.8408 C   0  0  0  0  0  0
    2.5552   -1.4747    1.2273 C   0  0  0  0  0  0
    2.8864   -0.5440    1.9692 O   0  0  0  0  0  0
    2.2766   -2.7264    1.6871 N   0  0  0  0  0  0
    1.3625   -3.6494    1.0017 C   0  0  1  0  0  0
    2.0551   -4.8900    0.3867 C   0  0  0  0  0  0
    1.0700   -6.0078    0.0191 C   0  0  0  0  0  0
    0.2519   -6.4383    1.2408 C   0  0  0  0  0  0
   -0.5165   -5.2621    1.8681 C   0  0  0  0  0  0
    0.3046   -3.9631    2.0849 C   0  0  1  0  0  0
    1.1417   -3.9763    3.3651 C   0  0  0  0  0  0
    2.3604   -3.0573    3.1302 C   0  0  1  0  0  0
    3.7606   -3.6060    3.5113 C   0  0  0  0  0  0
    3.8338   -4.2562    4.5777 O   0  0  0  0  0  0
    4.7388   -3.3602    2.7682 O   0  5  0  0  0  0
   -3.2190    3.2505    0.5330 H   0  0  0  0  0  0
   -2.3618    3.3480   -1.0017 H   0  0  0  0  0  0
   -1.5596    3.8363    0.4911 H   0  0  0  0  0  0
   -1.6787    1.4642    1.3224 H   0  0  0  0  0  0
   -2.4859    0.9880   -0.1531 H   0  0  0  0  0  0
   -0.4390    1.6062   -1.4831 H   0  0  0  0  0  0
    0.3197    2.1808   -0.0255 H   0  0  0  0  0  0
    0.1954   -0.1346    0.9469 H   0  0  0  0  0  0
   -1.8438   -3.3730   -1.0303 H   0  0  0  0  0  0
   -2.7572   -3.1293    0.4390 H   0  0  0  0  0  0
   -4.2600   -2.8469   -1.5210 H   0  0  0  0  0  0
   -3.2354   -1.5689   -2.1639 H   0  0  0  0  0  0
   -4.1169   -1.3184   -0.6573 H   0  0  0  0  0  0
    2.1540    0.8832   -0.5235 H   0  0  0  0  0  0
    2.1020   -2.0443   -0.8457 H   0  0  0  0  0  0
    4.5460   -1.9015   -0.6572 H   0  0  0  0  0  0
    4.4448   -0.1650   -0.3799 H   0  0  0  0  0  0
    3.9314   -0.8459   -1.9183 H   0  0  0  0  0  0
    0.7918   -3.2821    0.1500 H   0  0  0  0  0  0
    2.6203   -4.5953   -0.4983 H   0  0  0  0  0  0
    2.7770   -5.2975    1.0968 H   0  0  0  0  0  0
    0.4020   -5.6666   -0.7734 H   0  0  0  0  0  0
    1.6135   -6.8633   -0.3837 H   0  0  0  0  0  0
   -0.4456   -7.2290    0.9621 H   0  0  0  0  0  0
    0.9188   -6.8737    1.9864 H   0  0  0  0  0  0
   -1.3481   -5.0196    1.2050 H   0  0  0  0  0  0
   -0.9948   -5.5675    2.7997 H   0  0  0  0  0  0
   -0.3871   -3.1184    2.0749 H   0  0  0  0  0  0
    0.5624   -3.7076    4.2490 H   0  0  0  0  0  0
    1.5105   -4.9917    3.5243 H   0  0  0  0  0  0
    2.2091   -2.1525    3.7209 H   0  0  0  0  0  0
  1  2  1  0  0  0
  1 27  1  0  0  0
  1 28  1  0  0  0
  1 29  1  0  0  0
  2  3  1  0  0  0
  2 30  1  0  0  0
  2 31  1  0  0  0
  3  4  1  0  0  0
  3 32  1  0  0  0
  3 33  1  0  0  0
  4  5  1  0  0  0
  4 10  1  0  0  0
  4 34  1  0  0  0
  5  6  2  0  0  0
  5  7  1  0  0  0
  7  8  1  0  0  0
  8  9  1  0  0  0
  8 35  1  0  0  0
  8 36  1  0  0  0
  9 37  1  0  0  0
  9 38  1  0  0  0
  9 39  1  0  0  0
 10 11  1  0  0  0
 10 40  1  0  0  0
 11 12  1  0  0  0
 11 13  1  0  0  0
 11 41  1  0  0  0
 12 42  1  0  0  0
 12 43  1  0  0  0
 12 44  1  0  0  0
 13 14  2  0  0  0
 13 15  1  0  0  0
 15 23  1  0  0  0
 15 16  1  0  0  0
 16 21  1  0  0  0
 16 17  1  0  0  0
 16 45  1  0  0  0
 17 18  1  0  0  0
 17 46  1  0  0  0
 17 47  1  0  0  0
 18 19  1  0  0  0
 18 48  1  0  0  0
 18 49  1  0  0  0
 19 20  1  0  0  0
 19 50  1  0  0  0
 19 51  1  0  0  0
 20 21  1  0  0  0
 20 52  1  0  0  0
 20 53  1  0  0  0
 21 22  1  0  0  0
 21 54  1  0  0  0
 22 23  1  0  0  0
 22 55  1  0  0  0
 22 56  1  0  0  0
 23 24  1  0  0  0
 23 57  1  0  0  0
 24 25  2  0  0  0
 24 26  1  0  0  0
M  CHG  1  26  -1
M  END
> <s_m_entry_id>
118

> <s_m_entry_name>
entry

> <i_lp_mmshare_version>
47013

> <i_f3d_flags>
0

> <s_epik_input>
W0NIM11bQ0gyXU9DKD1PKVtDQEhdKFtDSDJdW0NIMl1bQ0gzXSlbTkhdW0NAQEhdKFtDSDNdKUMoPU8pTjFbQ0BIXShDKD1PKVtPSF0pW0NIMl1bQ0BASF0oW0NAQEhdMTIpW0NIMl1bQ0gyXVtDSDJdW0NIMl0y

> <s_epik_cmdline>
J2VwaWtfcHl0aG9uJywgJy1waCcsICc3LjQnLCAnLXRuJywgJzgnLCAnLW1hJywgJzIwMCcsICctbWV0YWxfYmluZGluZycsICctaW1hZScsICc8aW5maWxlLm1hZT4nLCAnLW9tYWUnLCAnPG91dGZpbGUubWFlPic=

> <r_epik_Ionization_Penalty>
  0.1191

> <r_epik_Ionization_Penalty_Charging>
  0.0002

> <r_epik_Ionization_Penalty_Neutral>
  0.1189

> <r_epik_State_Penalty>
  0.1085

> <r_epik_Charging_Adjusted_Penalty>
0.108709126531927

> <i_epik_Tot_Q>
-1

> <i_epik_Tot_abs_Q>
1

> <s_lp_Force_Field>
OPLS3e

> <r_lp_Energy>
33.508549

> <b_lp_Chiralities_Consistent>
1

> <s_lp_Variant>
107807-1

> <s_m_job_name>
ligprep_27

> <s_m_Source_Path>
/home/andre/Documents/projects/Esterase/data/FINAL_STUFF/Compounds/MAE_external

> <s_m_Source_File>
118.mae

> <i_m_Source_File_Index>
1

> <s_epik_Chemistry_Notes>
This compound has an ester and may undergo hydrolysis at high or low pH.

> <r_epik_Metal_State_Penalty>
  0.1085

> <b_epik_Metal_Only>
0

$$$$
