121
                    3D
 Schrodinger Suite 2021-1.
 73 77  0  0  1  0            999 V2000
   -0.1881   -5.0052    3.8888 C   0  0  0  0  0  0
    0.5179   -3.7397    3.7118 N   0  0  1  0  0  0
    1.5629   -3.8306    2.6869 C   0  0  0  0  0  0
    1.0399   -3.7417    1.2368 C   0  0  0  0  0  0
    0.1615   -2.4836    1.0828 N   0  3  0  0  0  0
   -0.9854   -2.4852    2.1195 C   0  0  0  0  0  0
   -0.4009   -2.6084    3.5440 C   0  0  0  0  0  0
   -0.3762   -2.3669   -0.3668 C   0  0  0  0  0  0
   -0.8289   -0.9224   -0.6792 C   0  0  0  0  0  0
   -1.9373   -0.7925   -1.2021 O   0  0  0  0  0  0
   -0.0462    0.1446   -0.3390 N   0  0  0  0  0  0
   -0.5831    1.5108   -0.4149 C   0  0  0  0  0  0
    1.3487    0.0409   -0.1486 C   0  0  0  0  0  0
    2.1739   -0.5135   -1.1341 C   0  0  0  0  0  0
    3.5511   -0.5595   -0.9416 C   0  0  0  0  0  0
    4.1355   -0.0725    0.2310 C   0  0  0  0  0  0
    3.2983    0.5116    1.1959 C   0  0  0  0  0  0
    1.9187    0.5602    1.0166 C   0  0  0  0  0  0
    5.5386   -0.0606    0.3169 N   0  0  0  0  0  0
    6.2397   -0.4057    1.3377 C   0  0  0  0  0  0
    7.7161   -0.2339    1.3416 C   0  0  0  0  0  0
    8.3302    0.6994    0.4876 C   0  0  0  0  0  0
    9.7119    0.8712    0.4838 C   0  0  0  0  0  0
   10.5041    0.1084    1.3351 C   0  0  0  0  0  0
    9.9240   -0.8240    2.1881 C   0  0  0  0  0  0
    8.5420   -0.9936    2.1895 C   0  0  0  0  0  0
    5.6378   -1.0130    2.5381 C   0  0  0  0  0  0
    4.9708   -2.2276    2.6495 C   0  0  0  0  0  0
    4.5715   -2.4361    3.9414 N   0  0  0  0  0  0
    4.9435   -1.3711    4.7269 C   0  0  0  0  0  0
    5.6212   -0.4553    3.8703 C   0  0  0  0  0  0
    6.1097    0.7343    4.4308 C   0  0  0  0  0  0
    5.9185    0.9804    5.7882 C   0  0  0  0  0  0
    5.2503    0.0730    6.6209 C   0  0  0  0  0  0
    4.7507   -1.1297    6.0907 C   0  0  0  0  0  0
    5.0833    0.4145    8.0757 C   0  0  0  0  0  0
    5.5057    1.4593    8.5810 O   0  0  0  0  0  0
    4.4201   -0.5395    8.7798 O   0  0  0  0  0  0
    4.1708   -0.3820   10.1697 C   0  0  0  0  0  0
    4.7195   -3.0938    1.7571 O   0  5  0  0  0  0
    0.5144   -5.8095    4.1107 H   0  0  0  0  0  0
   -0.7495   -5.2822    2.9955 H   0  0  0  0  0  0
   -0.8876   -4.9434    4.7235 H   0  0  0  0  0  0
    2.1572   -2.9311    2.8473 H   0  0  0  0  0  0
    2.2269   -4.6811    2.8483 H   0  0  0  0  0  0
    1.8774   -3.5867    0.5543 H   0  0  0  0  0  0
    0.4542   -4.6099    0.9306 H   0  0  0  0  0  0
   -1.4793   -1.5191    2.0097 H   0  0  0  0  0  0
   -1.6748   -3.2924    1.8663 H   0  0  0  0  0  0
   -1.1681   -2.5874    4.3193 H   0  0  0  0  0  0
    0.2274   -1.7290    3.6963 H   0  0  0  0  0  0
    0.4212   -2.6777   -1.0423 H   0  0  0  0  0  0
   -1.1854   -3.0953   -0.4486 H   0  0  0  0  0  0
    0.1473    2.1874   -0.8609 H   0  0  0  0  0  0
   -0.8074    1.8761    0.5875 H   0  0  0  0  0  0
   -1.4938    1.5866   -1.0104 H   0  0  0  0  0  0
    1.7568   -0.8905   -2.0567 H   0  0  0  0  0  0
    4.1745   -0.9758   -1.7200 H   0  0  0  0  0  0
    3.7210    0.9467    2.0897 H   0  0  0  0  0  0
    1.3008    1.0145    1.7779 H   0  0  0  0  0  0
    7.7396    1.3086   -0.1820 H   0  0  0  0  0  0
   10.1663    1.5939   -0.1776 H   0  0  0  0  0  0
   11.5760    0.2400    1.3330 H   0  0  0  0  0  0
   10.5428   -1.4160    2.8460 H   0  0  0  0  0  0
    8.1248   -1.7325    2.8587 H   0  0  0  0  0  0
    4.0760   -3.2692    4.2216 H   0  0  0  0  0  0
    6.6289    1.4575    3.8193 H   0  0  0  0  0  0
    6.3057    1.9069    6.1883 H   0  0  0  0  0  0
    4.2316   -1.8530    6.7029 H   0  0  0  0  0  0
    3.6315   -1.2496   10.5496 H   0  0  0  0  0  0
    3.5648    0.5047   10.3606 H   0  0  0  0  0  0
    5.1043   -0.2914   10.7272 H   0  0  0  0  0  0
    0.7541   -1.6868    1.2723 H   0  0  0  0  0  0
  1  2  1  0  0  0
  1 41  1  0  0  0
  1 42  1  0  0  0
  1 43  1  0  0  0
  2  7  1  0  0  0
  2  3  1  0  0  0
  3  4  1  0  0  0
  3 44  1  0  0  0
  3 45  1  0  0  0
  4  5  1  0  0  0
  4 46  1  0  0  0
  4 47  1  0  0  0
  5  6  1  0  0  0
  5  8  1  0  0  0
  5 73  1  0  0  0
  6  7  1  0  0  0
  6 48  1  0  0  0
  6 49  1  0  0  0
  7 50  1  0  0  0
  7 51  1  0  0  0
  8  9  1  0  0  0
  8 52  1  0  0  0
  8 53  1  0  0  0
  9 10  2  0  0  0
  9 11  1  0  0  0
 11 12  1  0  0  0
 11 13  1  0  0  0
 12 54  1  0  0  0
 12 55  1  0  0  0
 12 56  1  0  0  0
 13 18  1  0  0  0
 13 14  2  0  0  0
 14 15  1  0  0  0
 14 57  1  0  0  0
 15 16  2  0  0  0
 15 58  1  0  0  0
 16 17  1  0  0  0
 16 19  1  0  0  0
 17 18  2  0  0  0
 17 59  1  0  0  0
 18 60  1  0  0  0
 19 20  2  0  0  0
 20 21  1  0  0  0
 20 27  1  0  0  0
 21 26  1  0  0  0
 21 22  2  0  0  0
 22 23  1  0  0  0
 22 61  1  0  0  0
 23 24  2  0  0  0
 23 62  1  0  0  0
 24 25  1  0  0  0
 24 63  1  0  0  0
 25 26  2  0  0  0
 25 64  1  0  0  0
 26 65  1  0  0  0
 27 31  1  0  0  0
 27 28  2  0  0  0
 28 29  1  0  0  0
 28 40  1  0  0  0
 29 30  1  0  0  0
 29 66  1  0  0  0
 30 35  1  0  0  0
 30 31  2  0  0  0
 31 32  1  0  0  0
 32 33  2  0  0  0
 32 67  1  0  0  0
 33 34  1  0  0  0
 33 68  1  0  0  0
 34 35  2  0  0  0
 34 36  1  0  0  0
 35 69  1  0  0  0
 36 37  2  0  0  0
 36 38  1  0  0  0
 38 39  1  0  0  0
 39 70  1  0  0  0
 39 71  1  0  0  0
 39 72  1  0  0  0
M  CHG  2   5   1  40  -1
M  END
> <s_m_entry_id>
121

> <s_m_entry_name>
entry

> <i_lp_mmshare_version>
47013

> <i_f3d_flags>
0

> <s_epik_input>
W0NIM11OMVtDSDJdW0NIMl1OKFtDSDJdW0NIMl0xKVtDSDJdQyg9TylOKFtDSDNdKWMyW2NIXVtjSF1jKFtjSF1bY0hdMikvTj1DKC9jM1tjSF1bY0hdW2NIXVtjSF1bY0hdMyljKGMoW25IXTQpW09IXSljKGM0NSlbY0hdW2NIXWMoW2NIXTUpQyg9TylPW0NIM10=

> <s_epik_cmdline>
J2VwaWtfcHl0aG9uJywgJy1waCcsICc3LjQnLCAnLXRuJywgJzgnLCAnLW1hJywgJzIwMCcsICctbWV0YWxfYmluZGluZycsICctaW1hZScsICc8aW5maWxlLm1hZT4nLCAnLW9tYWUnLCAnPG91dGZpbGUubWFlPic=

> <r_epik_Ionization_Penalty>
  0.1281

> <r_epik_Ionization_Penalty_Charging>
  0.1276

> <r_epik_Ionization_Penalty_Neutral>
  0.0004

> <r_epik_State_Penalty>
  0.4656

> <r_epik_Charging_Adjusted_Penalty>
0.593167979968291

> <i_epik_Tot_Q>
0

> <i_epik_Tot_abs_Q>
2

> <s_lp_Force_Field>
OPLS3e

> <r_lp_Energy>
69.750948

> <b_lp_Chiralities_Consistent>
1

> <s_lp_Variant>
135423438-1

> <s_m_job_name>
ligprep_30

> <s_m_Source_Path>
/home/andre/Documents/projects/Esterase/data/FINAL_STUFF/Compounds/MAE_external

> <s_m_Source_File>
121.mae

> <i_m_Source_File_Index>
1

> <s_epik_Chemistry_Notes>
This compound has an ester and may undergo hydrolysis at high or low pH. This compound has an imine and may undergo hydrolysis.

> <r_epik_Metal_State_Penalty>
  0.4656

> <b_epik_Metal_Only>
0

$$$$
