125
                    3D
 Schrodinger Suite 2021-1.
 45 47  0  0  1  0            999 V2000
   -0.9597   -1.0090    1.2357 C   0  0  0  0  0  0
   -0.3018   -0.0512    0.1987 C   0  0  0  0  0  0
   -0.4024   -0.6982   -1.2200 C   0  0  0  0  0  0
    0.2069   -1.8854   -1.2684 F   0  0  0  0  0  0
   -1.6671   -0.9097   -1.5895 F   0  0  0  0  0  0
    0.1510    0.0628   -2.1666 F   0  0  0  0  0  0
   -0.9808    1.3601    0.2255 C   0  0  0  0  0  0
   -1.0123    1.9038    1.4423 F   0  0  0  0  0  0
   -0.3580    2.2280   -0.5740 F   0  0  0  0  0  0
   -2.2487    1.3033   -0.1848 F   0  0  0  0  0  0
    1.1245    0.0624    0.4091 O   0  0  0  0  0  0
    1.7556    0.4325    1.5685 C   0  0  0  0  0  0
    1.1712    0.6831    2.6246 O   0  0  0  0  0  0
    3.2503    0.4549    1.4355 C   0  0  0  0  0  0
    4.0377    0.6184    2.5841 C   0  0  0  0  0  0
    5.4262    0.6502    2.4917 C   0  0  0  0  0  0
    6.0472    0.5301    1.2480 C   0  0  0  0  0  0
    5.2741    0.3657    0.0981 C   0  0  0  0  0  0
    3.8853    0.3291    0.1893 C   0  0  0  0  0  0
    7.5682    0.5625    1.1394 C   0  0  0  0  0  0
    8.1267    1.8720    0.5591 C   0  0  0  0  0  0
    8.6761    2.0130   -0.6721 C   0  0  0  0  0  0
    9.2010    3.3073   -1.1625 C   0  0  0  0  0  0
    9.7793    3.5208   -2.4247 C   0  0  0  0  0  0
   10.2411    4.7884   -2.7826 C   0  0  0  0  0  0
   10.1315    5.8531   -1.8879 C   0  0  0  0  0  0
    9.5599    5.6543   -0.6315 C   0  0  0  0  0  0
    9.0983    4.3867   -0.2732 C   0  0  0  0  0  0
    8.5416    4.2537    0.9901 O   0  0  0  0  0  0
    8.0536    3.0467    1.4682 C   0  0  0  0  0  0
    7.6105    3.0850    2.6155 O   0  0  0  0  0  0
    8.7599    1.0217   -1.4922 O   0  5  0  0  0  0
   -1.9925   -1.2373    0.9699 H   0  0  0  0  0  0
   -0.9830   -0.5882    2.2402 H   0  0  0  0  0  0
   -0.4233   -1.9566    1.2991 H   0  0  0  0  0  0
    3.5856    0.7208    3.5606 H   0  0  0  0  0  0
    6.0176    0.7773    3.3868 H   0  0  0  0  0  0
    5.7500    0.2714   -0.8675 H   0  0  0  0  0  0
    3.3186    0.2082   -0.7228 H   0  0  0  0  0  0
    8.0182    0.3820    2.1178 H   0  0  0  0  0  0
    7.8800   -0.2912    0.5363 H   0  0  0  0  0  0
    9.8737    2.7110   -3.1334 H   0  0  0  0  0  0
   10.6839    4.9453   -3.7550 H   0  0  0  0  0  0
   10.4895    6.8326   -2.1685 H   0  0  0  0  0  0
    9.4768    6.4814    0.0588 H   0  0  0  0  0  0
  1  2  1  0  0  0
  1 33  1  0  0  0
  1 34  1  0  0  0
  1 35  1  0  0  0
  2  3  1  0  0  0
  2  7  1  0  0  0
  2 11  1  0  0  0
  3  4  1  0  0  0
  3  5  1  0  0  0
  3  6  1  0  0  0
  7  8  1  0  0  0
  7  9  1  0  0  0
  7 10  1  0  0  0
 11 12  1  0  0  0
 12 13  2  0  0  0
 12 14  1  0  0  0
 14 19  2  0  0  0
 14 15  1  0  0  0
 15 16  2  0  0  0
 15 36  1  0  0  0
 16 17  1  0  0  0
 16 37  1  0  0  0
 17 18  2  0  0  0
 17 20  1  0  0  0
 18 19  1  0  0  0
 18 38  1  0  0  0
 19 39  1  0  0  0
 20 21  1  0  0  0
 20 40  1  0  0  0
 20 41  1  0  0  0
 21 30  1  0  0  0
 21 22  2  0  0  0
 22 23  1  0  0  0
 22 32  1  0  0  0
 23 28  2  0  0  0
 23 24  1  0  0  0
 24 25  2  0  0  0
 24 42  1  0  0  0
 25 26  1  0  0  0
 25 43  1  0  0  0
 26 27  2  0  0  0
 26 44  1  0  0  0
 27 28  1  0  0  0
 27 45  1  0  0  0
 28 29  1  0  0  0
 29 30  1  0  0  0
 30 31  2  0  0  0
M  CHG  1  32  -1
M  END
> <s_m_entry_id>
125

> <s_m_entry_name>
entry

> <i_lp_mmshare_version>
47013

> <i_f3d_flags>
0

> <s_epik_input>
RkMoRikoRilDKFtDSDNdKShDKEYpKEYpRilPQyg9TyljMVtjSF1bY0hdYyhbY0hdW2NIXTEpW0NIMl1jKGMyW09IXSljKD1PKW9jKGMyMylbY0hdW2NIXVtjSF1bY0hdMw==

> <s_epik_cmdline>
J2VwaWtfcHl0aG9uJywgJy1waCcsICc3LjQnLCAnLXRuJywgJzgnLCAnLW1hJywgJzIwMCcsICctaW1hZScsICc8aW5maWxlLm1hZT4nLCAnLW9tYWUnLCAnPG91dGZpbGUubWFlPic=

> <r_epik_Ionization_Penalty>
  0.0314

> <r_epik_Ionization_Penalty_Charging>
  0.0314

> <r_epik_Ionization_Penalty_Neutral>
  0.0000

> <r_epik_State_Penalty>
  0.0259

> <r_epik_Charging_Adjusted_Penalty>
0.0572698683374245

> <i_epik_Tot_Q>
-1

> <i_epik_Tot_abs_Q>
1

> <s_lp_Force_Field>
OPLS3e

> <r_lp_Energy>
29.02781

> <b_lp_Chiralities_Consistent>
1

> <s_lp_Variant>
54718618-1

> <s_m_job_name>
ligprep_39

> <s_m_Source_Path>
/home/andre/Documents/projects/Esterase/data/FINAL_STUFF/Compounds/MAE_external

> <s_m_Source_File>
125.mae

> <i_m_Source_File_Index>
1

> <s_epik_Chemistry_Notes>
This compound has an ester and may undergo hydrolysis at high or low pH.

$$$$
