126
                    3D
 Schrodinger Suite 2021-1.
 52 53  0  0  1  0            999 V2000
   -0.4975   -0.6185    0.9411 O   0  0  0  0  0  0
    0.0913    0.1336   -0.1223 C   0  0  1  0  0  0
   -0.3558    1.6002    0.0383 C   0  0  0  0  0  0
   -1.7744    1.6602   -0.0851 O   0  0  0  0  0  0
   -2.4339    2.8642    0.0915 C   0  0  0  0  0  0
   -3.8594    2.8564    0.0151 C   0  0  0  0  0  0
   -4.5960    1.6644   -0.2312 C   0  0  0  0  0  0
   -5.9862    1.6874   -0.2971 C   0  0  0  0  0  0
   -6.6821    2.8775   -0.1230 C   0  0  0  0  0  0
   -5.9992    4.0652    0.1201 C   0  0  0  0  0  0
   -4.5836    4.0777    0.1931 C   0  0  0  0  0  0
   -3.8713    5.2743    0.4395 C   0  0  0  0  0  0
   -2.4841    5.2629    0.5082 C   0  0  0  0  0  0
   -1.7762    4.0795    0.3375 C   0  0  0  0  0  0
    1.6284   -0.0342   -0.1050 C   0  0  0  0  0  0
    2.2365    0.5869   -1.3753 N   0  3  0  0  0  0
    3.7759    0.6198   -1.4325 C   0  0  0  0  0  0
    4.1834    1.5191   -2.6098 C   0  0  0  0  0  0
    4.3365   -0.8097   -1.5532 C   0  0  0  0  0  0
   -0.6873   -1.9557    0.8546 C   0  0  0  0  0  0
   -1.3587   -2.5139    2.1151 C   0  0  0  0  0  0
   -0.3753   -2.6670   -0.1037 O   0  0  0  0  0  0
   -1.6524   -4.0275    2.0737 C   0  0  0  0  0  0
   -2.3332   -4.5257    3.3546 C   0  0  0  0  0  0
   -0.2954   -0.2317   -1.0763 H   0  0  0  0  0  0
   -0.0360    1.9830    1.0098 H   0  0  0  0  0  0
    0.0997    2.2208   -0.7352 H   0  0  0  0  0  0
   -4.0738    0.7285   -0.3683 H   0  0  0  0  0  0
   -6.5293    0.7726   -0.4844 H   0  0  0  0  0  0
   -7.7609    2.8798   -0.1764 H   0  0  0  0  0  0
   -6.5487    4.9859    0.2550 H   0  0  0  0  0  0
   -4.4121    6.2001    0.5745 H   0  0  0  0  0  0
   -1.9502    6.1829    0.6963 H   0  0  0  0  0  0
   -0.7001    4.1283    0.4000 H   0  0  0  0  0  0
    2.0980    0.4683    0.7421 H   0  0  0  0  0  0
    1.9279   -1.0818   -0.1301 H   0  0  0  0  0  0
    1.8887    0.0935   -2.1855 H   0  0  0  0  0  0
    4.0757    1.0834   -0.4909 H   0  0  0  0  0  0
    5.2680    1.6179   -2.6677 H   0  0  0  0  0  0
    3.7726    2.5243   -2.5057 H   0  0  0  0  0  0
    3.8391    1.1160   -3.5634 H   0  0  0  0  0  0
    5.4231   -0.7925   -1.6444 H   0  0  0  0  0  0
    3.9430   -1.3242   -2.4309 H   0  0  0  0  0  0
    4.1053   -1.4160   -0.6775 H   0  0  0  0  0  0
   -0.7198   -2.2918    2.9703 H   0  0  0  0  0  0
   -2.2899   -1.9694    2.2745 H   0  0  0  0  0  0
   -2.2902   -4.2608    1.2193 H   0  0  0  0  0  0
   -0.7254   -4.5836    1.9245 H   0  0  0  0  0  0
   -2.5298   -5.5968    3.2996 H   0  0  0  0  0  0
   -3.2870   -4.0225    3.5169 H   0  0  0  0  0  0
   -1.7077   -4.3487    4.2302 H   0  0  0  0  0  0
    1.9090    1.5406   -1.4352 H   0  0  0  0  0  0
  1  2  1  0  0  0
  1 20  1  0  0  0
  2  3  1  0  0  0
  2 15  1  0  0  0
  2 25  1  0  0  0
  3  4  1  0  0  0
  3 26  1  0  0  0
  3 27  1  0  0  0
  4  5  1  0  0  0
  5 14  2  0  0  0
  5  6  1  0  0  0
  6 11  2  0  0  0
  6  7  1  0  0  0
  7  8  2  0  0  0
  7 28  1  0  0  0
  8  9  1  0  0  0
  8 29  1  0  0  0
  9 10  2  0  0  0
  9 30  1  0  0  0
 10 11  1  0  0  0
 10 31  1  0  0  0
 11 12  1  0  0  0
 12 13  2  0  0  0
 12 32  1  0  0  0
 13 14  1  0  0  0
 13 33  1  0  0  0
 14 34  1  0  0  0
 15 16  1  0  0  0
 15 35  1  0  0  0
 15 36  1  0  0  0
 16 17  1  0  0  0
 16 37  1  0  0  0
 16 52  1  0  0  0
 17 18  1  0  0  0
 17 19  1  0  0  0
 17 38  1  0  0  0
 18 39  1  0  0  0
 18 40  1  0  0  0
 18 41  1  0  0  0
 19 42  1  0  0  0
 19 43  1  0  0  0
 19 44  1  0  0  0
 20 21  1  0  0  0
 20 22  2  0  0  0
 21 23  1  0  0  0
 21 45  1  0  0  0
 21 46  1  0  0  0
 23 24  1  0  0  0
 23 47  1  0  0  0
 23 48  1  0  0  0
 24 49  1  0  0  0
 24 50  1  0  0  0
 24 51  1  0  0  0
M  CHG  1  16   1
M  END
> <s_m_entry_id>
126

> <s_m_entry_name>
entry

> <i_lp_mmshare_version>
47013

> <i_f3d_flags>
0

> <s_epik_input>
W0NIM11bQ0gyXVtDSDJdQyg9TylPW0NASF0oW0NIMl1bTkhdW0NIXShbQ0gzXSlbQ0gzXSlbQ0gyXU9jMVtjSF1bY0hdW2NIXWMoYzEyKVtjSF1bY0hdW2NIXVtjSF0y

> <s_epik_cmdline>
J2VwaWtfcHl0aG9uJywgJy1waCcsICc3LjQnLCAnLXRuJywgJzgnLCAnLW1hJywgJzIwMCcsICctaW1hZScsICc8aW5maWxlLm1hZT4nLCAnLW9tYWUnLCAnPG91dGZpbGUubWFlPic=

> <r_epik_Ionization_Penalty>
  0.0219

> <r_epik_Ionization_Penalty_Charging>
  0.0219

> <r_epik_Ionization_Penalty_Neutral>
  0.0000

> <r_epik_State_Penalty>
  0.0176

> <r_epik_Charging_Adjusted_Penalty>
0.0394478806989477

> <i_epik_Tot_Q>
1

> <i_epik_Tot_abs_Q>
1

> <s_lp_Force_Field>
OPLS3e

> <r_lp_Energy>
27.769135

> <b_lp_Chiralities_Consistent>
1

> <s_lp_Variant>
286-1

> <s_m_job_name>
ligprep_1

> <s_m_Source_Path>
/home/andre/Documents/projects/Esterase/data/FINAL_STUFF/Compounds/MAE_external

> <s_m_Source_File>
126.mae

> <i_m_Source_File_Index>
1

> <s_epik_Chemistry_Notes>
This compound has an ester and may undergo hydrolysis at high or low pH.

$$$$
