129
                    3D
 Schrodinger Suite 2021-1.
 38 39  0  0  1  0            999 V2000
   -3.1136   -3.3460    4.6856 C   0  0  0  0  0  0
   -3.5678   -4.0883    5.7727 C   0  0  0  0  0  0
   -2.7591   -4.2303    6.8962 C   0  0  0  0  0  0
   -1.5012   -3.6366    6.9390 C   0  0  0  0  0  0
   -1.0512   -2.8945    5.8501 C   0  0  0  0  0  0
   -1.8509   -2.7359    4.7092 C   0  0  0  0  0  0
   -1.3698   -1.9448    3.5348 C   0  0  0  0  0  0
   -1.6212   -2.4011    2.2322 C   0  0  0  0  0  0
   -1.1751   -1.6923    1.1178 C   0  0  0  0  0  0
   -0.4630   -0.5017    1.2756 C   0  0  0  0  0  0
   -0.2141   -0.0299    2.5700 C   0  0  0  0  0  0
   -0.6612   -0.7387    3.6857 C   0  0  0  0  0  0
    0.0123    0.2640    0.0371 C   0  0  1  0  0  0
   -0.4179   -0.2226    4.9134 F   0  0  0  0  0  0
   -0.5550    1.7006   -0.0178 C   0  0  0  0  0  0
    1.5523    0.2160   -0.0251 C   0  0  0  0  0  0
    2.0040   -0.9602   -0.5118 O   0  0  0  0  0  0
    2.2553    1.1685    0.3231 O   0  0  0  0  0  0
    3.3995   -1.2002   -0.6539 C   0  0  0  0  0  0
    3.6412   -2.6140   -1.2022 C   0  0  0  0  0  0
    3.2436   -2.6997   -2.5553 O   0  0  0  0  0  0
   -3.7568   -3.2394    3.8241 H   0  0  0  0  0  0
   -4.5435   -4.5503    5.7444 H   0  0  0  0  0  0
   -3.1096   -4.8065    7.7398 H   0  0  0  0  0  0
   -0.8749   -3.7539    7.8111 H   0  0  0  0  0  0
   -0.0657   -2.4551    5.8958 H   0  0  0  0  0  0
   -2.1584   -3.3247    2.0734 H   0  0  0  0  0  0
   -1.3829   -2.0763    0.1296 H   0  0  0  0  0  0
    0.3280    0.8934    2.7144 H   0  0  0  0  0  0
   -0.3560   -0.2586   -0.8471 H   0  0  0  0  0  0
   -0.2419    2.3032    0.8359 H   0  0  0  0  0  0
   -1.6454    1.6863   -0.0256 H   0  0  0  0  0  0
   -0.2342    2.2198   -0.9219 H   0  0  0  0  0  0
    3.8518   -0.4545   -1.3104 H   0  0  0  0  0  0
    3.8790   -1.1054    0.3218 H   0  0  0  0  0  0
    4.7013   -2.8611   -1.1419 H   0  0  0  0  0  0
    3.1063   -3.3606   -0.6138 H   0  0  0  0  0  0
    3.4037   -3.5941   -2.8656 H   0  0  0  0  0  0
  1  2  2  0  0  0
  1  6  1  0  0  0
  1 22  1  0  0  0
  2  3  1  0  0  0
  2 23  1  0  0  0
  3  4  2  0  0  0
  3 24  1  0  0  0
  4  5  1  0  0  0
  4 25  1  0  0  0
  5  6  2  0  0  0
  5 26  1  0  0  0
  6  7  1  0  0  0
  7 12  2  0  0  0
  7  8  1  0  0  0
  8  9  2  0  0  0
  8 27  1  0  0  0
  9 10  1  0  0  0
  9 28  1  0  0  0
 10 11  2  0  0  0
 10 13  1  0  0  0
 11 12  1  0  0  0
 11 29  1  0  0  0
 12 14  1  0  0  0
 13 15  1  0  0  0
 13 16  1  0  0  0
 13 30  1  0  0  0
 15 31  1  0  0  0
 15 32  1  0  0  0
 15 33  1  0  0  0
 16 17  1  0  0  0
 16 18  2  0  0  0
 17 19  1  0  0  0
 19 20  1  0  0  0
 19 34  1  0  0  0
 19 35  1  0  0  0
 20 21  1  0  0  0
 20 36  1  0  0  0
 20 37  1  0  0  0
 21 38  1  0  0  0
M  END
> <s_m_entry_id>
129

> <s_m_entry_name>
entry

> <i_lp_mmshare_version>
47013

> <i_f3d_flags>
0

> <s_epik_input>
W2NIXTFbY0hdW2NIXVtjSF1bY0hdYzEtYzJbY0hdW2NIXWMoW2NIXWMyRilbQ0BASF0oW0NIM10pQyg9TylPW0NIMl1bQ0gyXVtPSF0=

> <s_epik_cmdline>
J2VwaWtfcHl0aG9uJywgJy1waCcsICc3LjQnLCAnLXRuJywgJzgnLCAnLW1hJywgJzIwMCcsICctaW1hZScsICc8aW5maWxlLm1hZT4nLCAnLW9tYWUnLCAnPG91dGZpbGUubWFlPic=

> <r_epik_Ionization_Penalty>
  0.0000

> <r_epik_Ionization_Penalty_Charging>
  0.0000

> <r_epik_Ionization_Penalty_Neutral>
  0.0000

> <r_epik_State_Penalty>
  0.0000

> <r_epik_Charging_Adjusted_Penalty>
0

> <i_epik_Tot_Q>
0

> <i_epik_Tot_abs_Q>
0

> <s_lp_Force_Field>
OPLS3e

> <r_lp_Energy>
31.641995

> <b_lp_Chiralities_Consistent>
1

> <s_lp_Variant>
290-1

> <s_m_job_name>
ligprep_6

> <s_m_Source_Path>
/home/andre/Documents/projects/Esterase/data/FINAL_STUFF/Compounds/MAE_external

> <s_m_Source_File>
129.mae

> <i_m_Source_File_Index>
1

> <r_lp_tautomer_probability>
1

> <s_epik_Chemistry_Notes>
This compound has an ester and may undergo hydrolysis at high or low pH.

$$$$
