133
                    3D
 Schrodinger Suite 2021-1.
 69 74  0  0  1  0            999 V2000
   -2.8314    0.2389   -1.5947 C   0  0  0  0  0  0
   -2.1459    1.5454   -1.5469 N   0  0  0  0  0  0
   -2.9987    2.7399   -1.4357 C   0  0  0  0  0  0
   -3.7299    2.6313   -0.0759 C   0  0  0  0  0  0
   -4.4535    1.2767    0.1101 C   0  0  0  0  0  0
   -3.5460    0.0718   -0.2337 C   0  0  0  0  0  0
   -0.7601    1.6721   -1.3392 C   0  0  0  0  0  0
   -4.9122    1.1541    1.5676 N   0  3  0  0  0  0
   -0.1422    0.4493   -1.2852 O   0  0  0  0  0  0
   -0.1616    2.7474   -1.2302 O   0  0  0  0  0  0
    1.2195    0.3744   -1.0973 C   0  0  0  0  0  0
    1.7246    0.1114    0.1736 C   0  0  0  0  0  0
    3.0954    0.0141    0.3882 C   0  0  0  0  0  0
    4.0004    0.1740   -0.6883 C   0  0  0  0  0  0
    3.4976    0.4328   -2.0061 C   0  0  0  0  0  0
    2.0878    0.5224   -2.1804 C   0  0  0  0  0  0
    5.3326    0.0727   -0.4227 N   0  0  0  0  0  0
    6.1929    0.2288   -1.4548 C   0  0  0  0  0  0
    5.8112    0.4811   -2.7596 C   0  0  0  0  0  0
    4.4520    0.5861   -3.0685 C   0  0  0  0  0  0
    7.0374    0.6007   -3.6241 C   0  0  0  0  0  0
    8.1048    0.3779   -2.6538 N   0  0  0  0  0  0
    7.6562    0.1587   -1.3690 C   0  0  0  0  0  0
    8.4822   -0.0641   -0.3267 C   0  0  0  0  0  0
    9.9163   -0.0717   -0.5815 C   0  0  0  0  0  0
   10.3500    0.1435   -1.8571 C   0  0  0  0  0  0
    9.4379    0.3860   -2.9845 C   0  0  0  0  0  0
   10.9548   -0.2871    0.5125 C   0  0  0  0  0  0
   12.2462   -0.9490   -0.0563 C   0  0  1  0  0  0
   12.6927   -0.2267   -1.3609 C   0  0  0  0  0  0
   11.6730    0.1561   -2.1900 O   0  0  0  0  0  0
   13.8367    0.0462   -1.7246 O   0  0  0  0  0  0
   13.2850   -0.8533    0.9053 O   0  0  0  0  0  0
   12.0234   -2.4673   -0.3429 C   0  0  0  0  0  0
   13.2371   -3.2642   -0.8685 C   0  0  0  0  0  0
    9.8362    0.5797   -4.1349 O   0  0  0  0  0  0
    3.9849    0.8711   -4.4956 C   0  0  0  0  0  0
    3.6289    2.3480   -4.7229 C   0  0  0  0  0  0
   -3.5978    0.3127   -2.3675 H   0  0  0  0  0  0
   -2.1924   -0.5995   -1.8744 H   0  0  0  0  0  0
   -2.4581    3.6784   -1.5716 H   0  0  0  0  0  0
   -3.7402    2.6813   -2.2335 H   0  0  0  0  0  0
   -2.9789    2.7507    0.7079 H   0  0  0  0  0  0
   -4.4155    3.4637    0.0881 H   0  0  0  0  0  0
   -5.3181    1.2557   -0.5558 H   0  0  0  0  0  0
   -4.1063   -0.8623   -0.1781 H   0  0  0  0  0  0
   -2.7743   -0.0354    0.5318 H   0  0  0  0  0  0
   -4.1134    1.1741    2.1851 H   0  0  0  0  0  0
   -5.4080    0.2851    1.7051 H   0  0  0  0  0  0
    1.0470   -0.0145    1.0057 H   0  0  0  0  0  0
    3.4740   -0.1844    1.3810 H   0  0  0  0  0  0
    1.6731    0.7161   -3.1579 H   0  0  0  0  0  0
    7.0664   -0.1506   -4.4143 H   0  0  0  0  0  0
    7.1272    1.5865   -4.0821 H   0  0  0  0  0  0
    8.0988   -0.2323    0.6694 H   0  0  0  0  0  0
   11.2031    0.6928    0.9253 H   0  0  0  0  0  0
   10.5369   -0.8687    1.3356 H   0  0  0  0  0  0
   13.0309   -1.3575    1.6815 H   0  0  0  0  0  0
   11.6767   -2.9522    0.5712 H   0  0  0  0  0  0
   11.2044   -2.5926   -1.0536 H   0  0  0  0  0  0
   12.9829   -4.3175   -0.9887 H   0  0  0  0  0  0
   14.0824   -3.2092   -0.1822 H   0  0  0  0  0  0
   13.5706   -2.9000   -1.8403 H   0  0  0  0  0  0
    4.7737    0.5918   -5.1951 H   0  0  0  0  0  0
    3.1431    0.2271   -4.7509 H   0  0  0  0  0  0
    3.3288    2.5191   -5.7569 H   0  0  0  0  0  0
    4.4819    2.9952   -4.5156 H   0  0  0  0  0  0
    2.8053    2.6681   -4.0841 H   0  0  0  0  0  0
   -5.5260    1.9203    1.8059 H   0  0  0  0  0  0
  1  2  1  0  0  0
  1  6  1  0  0  0
  1 39  1  0  0  0
  1 40  1  0  0  0
  2  3  1  0  0  0
  2  7  1  0  0  0
  3  4  1  0  0  0
  3 41  1  0  0  0
  3 42  1  0  0  0
  4  5  1  0  0  0
  4 43  1  0  0  0
  4 44  1  0  0  0
  5  6  1  0  0  0
  5  8  1  0  0  0
  5 45  1  0  0  0
  6 46  1  0  0  0
  6 47  1  0  0  0
  7  9  1  0  0  0
  7 10  2  0  0  0
  8 48  1  0  0  0
  8 49  1  0  0  0
  8 69  1  0  0  0
  9 11  1  0  0  0
 11 16  2  0  0  0
 11 12  1  0  0  0
 12 13  2  0  0  0
 12 50  1  0  0  0
 13 14  1  0  0  0
 13 51  1  0  0  0
 14 15  2  0  0  0
 14 17  1  0  0  0
 15 16  1  0  0  0
 15 20  1  0  0  0
 16 52  1  0  0  0
 17 18  2  0  0  0
 18 19  1  0  0  0
 18 23  1  0  0  0
 19 20  2  0  0  0
 19 21  1  0  0  0
 20 37  1  0  0  0
 21 22  1  0  0  0
 21 53  1  0  0  0
 21 54  1  0  0  0
 22 23  1  0  0  0
 22 27  1  0  0  0
 23 24  2  0  0  0
 24 25  1  0  0  0
 24 55  1  0  0  0
 25 26  2  0  0  0
 25 28  1  0  0  0
 26 27  1  0  0  0
 26 31  1  0  0  0
 27 36  2  0  0  0
 28 29  1  0  0  0
 28 56  1  0  0  0
 28 57  1  0  0  0
 29 30  1  0  0  0
 29 33  1  0  0  0
 29 34  1  0  0  0
 30 31  1  0  0  0
 30 32  2  0  0  0
 33 58  1  0  0  0
 34 35  1  0  0  0
 34 59  1  0  0  0
 34 60  1  0  0  0
 35 61  1  0  0  0
 35 62  1  0  0  0
 35 63  1  0  0  0
 37 38  1  0  0  0
 37 64  1  0  0  0
 37 65  1  0  0  0
 38 66  1  0  0  0
 38 67  1  0  0  0
 38 68  1  0  0  0
M  CHG  1   8   1
M  END
> <s_m_entry_id>
133

> <s_m_entry_name>
entry

> <i_lp_mmshare_version>
47013

> <i_f3d_flags>
0

> <s_epik_input>
W0NIMl0xW0NIMl1bQ0hdKFtOSDJdKVtDSDJdW0NIMl1OMUMoPU8pT2MoW2NIXVtjSF0yKVtjSF1jKGMyMyljKFtDSDJdW0NIM10pYzRjKG4zKWM1bihbQ0gyXTQpYyg9TyljNmMoW2NIXTUpW0NIMl1bQ0BAXShDKE82KT1PKShbT0hdKVtDSDJdW0NIM10=

> <s_epik_cmdline>
J2VwaWtfcHl0aG9uJywgJy1waCcsICc3LjQnLCAnLXRuJywgJzgnLCAnLW1hJywgJzIwMCcsICctaW1hZScsICc8aW5maWxlLm1hZT4nLCAnLW9tYWUnLCAnPG91dGZpbGUubWFlPic=

> <r_epik_Ionization_Penalty>
  0.0500

> <r_epik_Ionization_Penalty_Charging>
  0.0497

> <r_epik_Ionization_Penalty_Neutral>
  0.0003

> <r_epik_State_Penalty>
  0.0425

> <r_epik_Charging_Adjusted_Penalty>
0.0921644474769935

> <i_epik_Tot_Q>
1

> <i_epik_Tot_abs_Q>
1

> <s_lp_Force_Field>
OPLS3e

> <r_lp_Energy>
68.635262

> <b_lp_Chiralities_Consistent>
1

> <s_lp_Variant>
294-1

> <s_m_job_name>
ligprep_8

> <s_m_Source_Path>
/home/andre/Documents/projects/Esterase/data/FINAL_STUFF/Compounds/MAE_external

> <s_m_Source_File>
133.mae

> <i_m_Source_File_Index>
1

> <r_lp_tautomer_probability>
1

$$$$
