135
                    3D
 Schrodinger Suite 2021-1.
 68 70  0  0  1  0            999 V2000
   -1.5805    2.8103   -2.2856 C   0  0  0  0  0  0
   -2.3464    1.9710   -1.2423 C   0  0  0  0  0  0
   -1.8981    2.1156    0.2481 C   0  0  0  0  0  0
   -2.2701    3.5327    0.7675 C   0  0  0  0  0  0
   -2.6707    1.0836    1.1090 C   0  0  0  0  0  0
   -0.3759    1.8478    0.4316 C   0  0  0  0  0  0
    0.3513    2.5951    1.0920 O   0  0  0  0  0  0
    0.0395    0.7158   -0.1958 O   0  0  0  0  0  0
    1.3876    0.2531   -0.1275 C   0  0  1  0  0  0
    1.7240   -0.4642    1.1921 C   0  0  0  0  0  0
    3.2570   -0.6155    1.3413 C   0  0  2  0  0  0
    3.8670   -1.1311    0.0384 C   0  0  0  0  0  0
    3.2364   -1.1623   -1.1579 C   0  0  0  0  0  0
    1.8247   -0.5781   -1.3758 C   0  0  1  0  0  0
    0.9592   -1.7693   -1.9297 C   0  0  2  0  0  0
    1.5401   -2.2799   -3.3088 C   0  0  2  0  0  0
    3.0676   -2.3960   -3.2597 C   0  0  0  0  0  0
    3.8203   -1.8948   -2.2647 C   0  0  0  0  0  0
    1.1641   -1.4065   -4.5262 C   0  0  0  0  0  0
   -0.5786   -1.5409   -1.9663 C   0  0  0  0  0  0
   -1.4355   -2.7235   -2.4764 C   0  0  0  0  0  0
   -1.2874   -4.0267   -1.6625 C   0  0  2  0  0  0
   -2.0822   -5.2044   -2.2772 C   0  0  0  0  0  0
   -2.1998   -6.4159   -1.3208 C   0  0  2  0  0  0
   -1.3746   -6.2608   -0.0260 C   0  0  0  0  0  0
   -1.5615   -4.8680    0.5966 C   0  0  0  0  0  0
   -1.7197   -4.6102    1.7875 O   0  0  0  0  0  0
   -1.5849   -3.8150   -0.2738 O   0  0  0  0  0  0
   -1.8900   -7.6341   -1.9650 O   0  0  0  0  0  0
    3.6312   -1.5367    2.5151 C   0  0  0  0  0  0
   -1.9922    2.6499   -3.2822 H   0  0  0  0  0  0
   -0.5245    2.5426   -2.3270 H   0  0  0  0  0  0
   -1.6487    3.8771   -2.0746 H   0  0  0  0  0  0
   -3.4050    2.2250   -1.3194 H   0  0  0  0  0  0
   -2.2976    0.9234   -1.5426 H   0  0  0  0  0  0
   -3.3393    3.7245    0.6658 H   0  0  0  0  0  0
   -1.7526    4.3218    0.2203 H   0  0  0  0  0  0
   -2.0298    3.6583    1.8249 H   0  0  0  0  0  0
   -3.7472    1.2535    1.0583 H   0  0  0  0  0  0
   -2.3917    1.1358    2.1632 H   0  0  0  0  0  0
   -2.5001    0.0590    0.7734 H   0  0  0  0  0  0
    2.0081    1.1519   -0.1624 H   0  0  0  0  0  0
    1.3358    0.0935    2.0454 H   0  0  0  0  0  0
    1.2504   -1.4475    1.2155 H   0  0  0  0  0  0
    3.6897    0.3661    1.5412 H   0  0  0  0  0  0
    4.8434   -1.5924    0.0995 H   0  0  0  0  0  0
    1.8928    0.1605   -2.1760 H   0  0  0  0  0  0
    1.0906   -2.5828   -1.2126 H   0  0  0  0  0  0
    1.1575   -3.2855   -3.4867 H   0  0  0  0  0  0
    3.5734   -2.9338   -4.0487 H   0  0  0  0  0  0
    4.8874   -2.0654   -2.2868 H   0  0  0  0  0  0
    1.5624   -1.8280   -5.4501 H   0  0  0  0  0  0
    1.5567   -0.3932   -4.4353 H   0  0  0  0  0  0
    0.0859   -1.3281   -4.6584 H   0  0  0  0  0  0
   -0.9358   -1.3270   -0.9607 H   0  0  0  0  0  0
   -0.8011   -0.6533   -2.5592 H   0  0  0  0  0  0
   -2.4828   -2.4182   -2.4654 H   0  0  0  0  0  0
   -1.2056   -2.9231   -3.5228 H   0  0  0  0  0  0
   -0.2350   -4.3101   -1.7147 H   0  0  0  0  0  0
   -3.0786   -4.8909   -2.5925 H   0  0  0  0  0  0
   -1.5970   -5.5021   -3.2086 H   0  0  0  0  0  0
   -3.2494   -6.5210   -1.0396 H   0  0  0  0  0  0
   -1.6529   -7.0203    0.7052 H   0  0  0  0  0  0
   -0.3116   -6.3859   -0.2340 H   0  0  0  0  0  0
   -2.4112   -7.6966   -2.7691 H   0  0  0  0  0  0
    4.7123   -1.5888    2.6498 H   0  0  0  0  0  0
    3.2666   -2.5529    2.3588 H   0  0  0  0  0  0
    3.2043   -1.1731    3.4505 H   0  0  0  0  0  0
  1  2  1  0  0  0
  1 31  1  0  0  0
  1 32  1  0  0  0
  1 33  1  0  0  0
  2  3  1  0  0  0
  2 34  1  0  0  0
  2 35  1  0  0  0
  3  4  1  0  0  0
  3  5  1  0  0  0
  3  6  1  0  0  0
  4 36  1  0  0  0
  4 37  1  0  0  0
  4 38  1  0  0  0
  5 39  1  0  0  0
  5 40  1  0  0  0
  5 41  1  0  0  0
  6  7  2  0  0  0
  6  8  1  0  0  0
  8  9  1  0  0  0
  9 14  1  0  0  0
  9 10  1  0  0  0
  9 42  1  0  0  0
 10 11  1  0  0  0
 10 43  1  0  0  0
 10 44  1  0  0  0
 11 12  1  0  0  0
 11 30  1  0  0  0
 11 45  1  0  0  0
 12 13  2  0  0  0
 12 46  1  0  0  0
 13 18  1  0  0  0
 13 14  1  0  0  0
 14 15  1  0  0  0
 14 47  1  0  0  0
 15 16  1  0  0  0
 15 20  1  0  0  0
 15 48  1  0  0  0
 16 17  1  0  0  0
 16 19  1  0  0  0
 16 49  1  0  0  0
 17 18  2  0  0  0
 17 50  1  0  0  0
 18 51  1  0  0  0
 19 52  1  0  0  0
 19 53  1  0  0  0
 19 54  1  0  0  0
 20 21  1  0  0  0
 20 55  1  0  0  0
 20 56  1  0  0  0
 21 22  1  0  0  0
 21 57  1  0  0  0
 21 58  1  0  0  0
 22 28  1  0  0  0
 22 23  1  0  0  0
 22 59  1  0  0  0
 23 24  1  0  0  0
 23 60  1  0  0  0
 23 61  1  0  0  0
 24 25  1  0  0  0
 24 29  1  0  0  0
 24 62  1  0  0  0
 25 26  1  0  0  0
 25 63  1  0  0  0
 25 64  1  0  0  0
 26 27  2  0  0  0
 26 28  1  0  0  0
 29 65  1  0  0  0
 30 66  1  0  0  0
 30 67  1  0  0  0
 30 68  1  0  0  0
M  END
> <s_m_entry_id>
135

> <s_m_entry_name>
entry

> <i_lp_mmshare_version>
47013

> <i_f3d_flags>
0

> <s_epik_input>
W0NIM11bQ0gyXUMoW0NIM10pKFtDSDNdKUMoPU8pT1tDQEBIXShbQ0gyXVtDQEhdKFtDSF09MSlbQ0gzXSlbQ0BASF0oQzEyKVtDQEhdKFtDQEBIXShbQ0gzXSlbQ0hdPVtDSF0yKVtDSDJdW0NIMl1bQ0BASF0zW0NIMl1bQ0BASF0oW09IXSlbQ0gyXUMoPU8pTzM=

> <s_epik_cmdline>
J2VwaWtfcHl0aG9uJywgJy1waCcsICc3LjQnLCAnLXRuJywgJzgnLCAnLW1hJywgJzIwMCcsICctaW1hZScsICc8aW5maWxlLm1hZT4nLCAnLW9tYWUnLCAnPG91dGZpbGUubWFlPic=

> <r_epik_Ionization_Penalty>
  0.0000

> <r_epik_Ionization_Penalty_Charging>
  0.0000

> <r_epik_Ionization_Penalty_Neutral>
  0.0000

> <r_epik_State_Penalty>
  0.0000

> <r_epik_Charging_Adjusted_Penalty>
0

> <i_epik_Tot_Q>
0

> <i_epik_Tot_abs_Q>
0

> <s_lp_Force_Field>
OPLS3e

> <r_lp_Energy>
25.03822

> <b_lp_Chiralities_Consistent>
1

> <s_lp_Variant>
296-1

> <s_m_job_name>
ligprep_10

> <s_m_Source_Path>
/home/andre/Documents/projects/Esterase/data/FINAL_STUFF/Compounds/MAE_external

> <s_m_Source_File>
135.mae

> <i_m_Source_File_Index>
1

> <r_lp_tautomer_probability>
1

> <s_epik_Chemistry_Notes>
This compound has an ester and may undergo hydrolysis at high or low pH.

$$$$
