137
                    3D
 Schrodinger Suite 2021-1.
 38 40  0  0  1  0            999 V2000
   -0.1316    0.1980    5.7229 O   0  0  0  0  0  0
   -0.6086    0.6601    4.6889 C   0  0  0  0  0  0
    0.1656    1.1951    3.5901 C   0  0  0  0  0  0
   -0.5417    1.6643    2.5502 C   0  0  0  0  0  0
   -2.0467    1.5770    2.6802 C   0  0  2  0  0  0
   -2.3802    0.7559    4.2515 S   0  0  0  0  0  0
   -2.6119    0.8734    1.4285 C   0  0  0  0  0  0
   -2.0402    1.4686    0.1134 C   0  0  0  0  0  0
   -0.5604    1.4380    0.0521 N   0  0  1  0  0  0
   -0.0364    2.1897    1.2137 C   0  0  0  0  0  0
   -0.0074    0.0582   -0.0526 C   0  0  1  0  0  0
   -0.4851   -0.7207   -1.3000 C   0  0  0  0  0  0
   -0.7717   -0.0495   -2.5016 C   0  0  0  0  0  0
   -1.1862   -0.7490   -3.6333 C   0  0  0  0  0  0
   -1.3163   -2.1342   -3.5857 C   0  0  0  0  0  0
   -1.0305   -2.8181   -2.4064 C   0  0  0  0  0  0
   -0.6155   -2.1236   -1.2680 C   0  0  0  0  0  0
   -0.2881   -3.0369    0.1659 Cl  0  0  0  0  0  0
    1.5402    0.0158   -0.0875 C   0  0  0  0  0  0
    2.1918    0.6456   -0.9258 O   0  0  0  0  0  0
    2.0522   -0.7433    0.9044 O   0  0  0  0  0  0
    3.4567   -0.8947    1.0458 C   0  0  0  0  0  0
    1.2453    1.1849    3.6180 H   0  0  0  0  0  0
   -2.4502    2.5881    2.7509 H   0  0  0  0  0  0
   -2.4381   -0.2031    1.4605 H   0  0  0  0  0  0
   -3.6974    0.9756    1.4225 H   0  0  0  0  0  0
   -2.4727    0.9441   -0.7377 H   0  0  0  0  0  0
   -2.3632    2.5047   -0.0000 H   0  0  0  0  0  0
   -0.3969    3.2134    1.1008 H   0  0  0  0  0  0
    1.0491    2.2844    1.1756 H   0  0  0  0  0  0
   -0.3563   -0.4740    0.8321 H   0  0  0  0  0  0
   -0.6644    1.0235   -2.5667 H   0  0  0  0  0  0
   -1.4017   -0.2164   -4.5479 H   0  0  0  0  0  0
   -1.6355   -2.6778   -4.4626 H   0  0  0  0  0  0
   -1.1328   -3.8931   -2.3776 H   0  0  0  0  0  0
    3.6740   -1.5479    1.8907 H   0  0  0  0  0  0
    3.9387    0.0671    1.2275 H   0  0  0  0  0  0
    3.8953   -1.3398    0.1515 H   0  0  0  0  0  0
  1  2  2  0  0  0
  2  3  1  0  0  0
  2  6  1  0  0  0
  3  4  2  0  0  0
  3 23  1  0  0  0
  4  5  1  0  0  0
  4 10  1  0  0  0
  5  6  1  0  0  0
  5  7  1  0  0  0
  5 24  1  0  0  0
  7  8  1  0  0  0
  7 25  1  0  0  0
  7 26  1  0  0  0
  8  9  1  0  0  0
  8 27  1  0  0  0
  8 28  1  0  0  0
  9 10  1  0  0  0
  9 11  1  0  0  0
 10 29  1  0  0  0
 10 30  1  0  0  0
 11 12  1  0  0  0
 11 19  1  0  0  0
 11 31  1  0  0  0
 12 13  2  0  0  0
 12 17  1  0  0  0
 13 14  1  0  0  0
 13 32  1  0  0  0
 14 15  2  0  0  0
 14 33  1  0  0  0
 15 16  1  0  0  0
 15 34  1  0  0  0
 16 17  2  0  0  0
 16 35  1  0  0  0
 17 18  1  0  0  0
 19 20  2  0  0  0
 19 21  1  0  0  0
 21 22  1  0  0  0
 22 36  1  0  0  0
 22 37  1  0  0  0
 22 38  1  0  0  0
M  END
> <s_m_entry_id>
137

> <s_m_entry_name>
entry

> <i_lp_mmshare_version>
47013

> <i_f3d_flags>
0

> <s_epik_input>
Tz1DKFtDSF09MSlTW0NAQEhdKEMxMilbQ0gyXVtDSDJdTihbQ0gyXTIpW0NASF0oQyg9TylPW0NIM10pYzNbY0hdW2NIXVtjSF1bY0hdYzNDbA==

> <s_epik_cmdline>
J2VwaWtfcHl0aG9uJywgJy1waCcsICc3LjQnLCAnLXRuJywgJzgnLCAnLW1hJywgJzIwMCcsICctaW1hZScsICc8aW5maWxlLm1hZT4nLCAnLW9tYWUnLCAnPG91dGZpbGUubWFlPic=

> <r_epik_Ionization_Penalty>
  0.0012

> <r_epik_Ionization_Penalty_Charging>
  0.0000

> <r_epik_Ionization_Penalty_Neutral>
  0.0012

> <r_epik_State_Penalty>
  0.0008

> <r_epik_Charging_Adjusted_Penalty>
0.000761872624931594

> <i_epik_Tot_Q>
0

> <i_epik_Tot_abs_Q>
0

> <s_lp_Force_Field>
OPLS3e

> <r_lp_Energy>
24.323801

> <b_lp_Chiralities_Consistent>
1

> <s_lp_Variant>
298-1

> <s_m_job_name>
ligprep_12

> <s_m_Source_Path>
/home/andre/Documents/projects/Esterase/data/FINAL_STUFF/Compounds/MAE_external

> <s_m_Source_File>
137.mae

> <i_m_Source_File_Index>
1

> <s_epik_Chemistry_Notes>
This compound has an ester and may undergo hydrolysis at high or low pH.

$$$$
