138
                    3D
 Schrodinger Suite 2021-1.
 71 74  0  0  1  0            999 V2000
   -4.1145   -2.0534   -1.9541 C   0  0  0  0  0  0
   -3.8424   -0.8600   -1.0283 C   0  0  0  0  0  0
   -2.3741   -0.4058   -1.0558 C   0  0  0  0  0  0
   -2.1059    0.7797   -0.1049 C   0  0  0  0  0  0
   -0.6508    1.2554   -0.1045 C   0  0  0  0  0  0
   -0.3693    2.4470   -0.2328 O   0  0  0  0  0  0
    0.2426    0.2248    0.0563 O   0  0  0  0  0  0
    1.6940    0.3245    0.0987 C   0  0  2  0  0  0
    2.2161    0.8915   -1.3029 C   0  0  2  0  0  0
    2.7029   -0.3336   -2.1081 C   0  0  0  0  0  0
    2.1380   -1.5385   -1.3562 C   0  0  2  0  0  0
    2.2624   -1.1601    0.1447 C   0  0  2  0  0  0
    1.4251   -2.2251    0.9396 C   0  0  0  0  0  0
    1.8346   -3.7005    0.6612 C   0  0  1  0  0  0
    1.8710   -4.0505   -0.8735 C   0  0  1  0  0  0
    2.6416   -2.9676   -1.7114 C   0  0  1  0  0  0
    2.5341   -3.2571   -3.2289 C   0  0  0  0  0  0
    2.9829   -4.6789   -3.6029 C   0  0  0  0  0  0
    2.1740   -5.6879   -2.7892 C   0  0  0  0  0  0
    1.3867   -6.6188   -3.3789 C   0  0  0  0  0  0
    0.5612   -7.5969   -2.6697 C   0  0  0  0  0  0
   -0.1339   -8.4333   -3.2427 O   0  0  0  0  0  0
    0.6398   -7.4832   -1.2161 C   0  0  0  0  0  0
    1.4042   -6.5780   -0.5731 C   0  0  0  0  0  0
    2.3076   -5.5299   -1.2465 C   0  0  2  0  0  0
    3.7686   -5.8962   -0.8602 C   0  0  0  0  0  0
    0.5858   -3.9542   -1.2477 F   0  0  0  0  0  0
    3.0199   -4.0175    1.3630 O   0  0  0  0  0  0
    3.7493   -1.1646    0.6412 C   0  0  0  0  0  0
    3.2521    2.0360   -1.3581 C   0  0  0  0  0  0
    2.0134    1.1404    1.4135 C   0  0  0  0  0  0
    2.7977    2.0902    1.4183 O   0  0  0  0  0  0
    1.3164    0.7017    2.7211 C   0  0  0  0  0  0
    1.5492    1.6387    3.7580 O   0  0  0  0  0  0
   -5.1603   -2.3571   -1.9007 H   0  0  0  0  0  0
   -3.5056   -2.9149   -1.6775 H   0  0  0  0  0  0
   -3.8939   -1.8070   -2.9932 H   0  0  0  0  0  0
   -4.4893   -0.0293   -1.3140 H   0  0  0  0  0  0
   -4.1225   -1.1296   -0.0088 H   0  0  0  0  0  0
   -1.7381   -1.2522   -0.7893 H   0  0  0  0  0  0
   -2.0993   -0.1281   -2.0752 H   0  0  0  0  0  0
   -2.7489    1.6187   -0.3739 H   0  0  0  0  0  0
   -2.3752    0.5079    0.9160 H   0  0  0  0  0  0
    1.3568    1.2650   -1.8598 H   0  0  0  0  0  0
    2.4179   -0.3242   -3.1608 H   0  0  0  0  0  0
    3.7902   -0.4150   -2.0592 H   0  0  0  0  0  0
    1.0707   -1.5422   -1.5945 H   0  0  0  0  0  0
    1.4249   -2.0282    2.0093 H   0  0  0  0  0  0
    0.3922   -2.1366    0.6020 H   0  0  0  0  0  0
    1.0798   -4.3335    1.1302 H   0  0  0  0  0  0
    3.6959   -3.0448   -1.4527 H   0  0  0  0  0  0
    1.5009   -3.1135   -3.5508 H   0  0  0  0  0  0
    3.1049   -2.5230   -3.7981 H   0  0  0  0  0  0
    2.8343   -4.8323   -4.6729 H   0  0  0  0  0  0
    4.0537   -4.8019   -3.4391 H   0  0  0  0  0  0
    1.3591   -6.6321   -4.4590 H   0  0  0  0  0  0
    0.0564   -8.1614   -0.6102 H   0  0  0  0  0  0
    1.3760   -6.6059    0.5067 H   0  0  0  0  0  0
    4.0787   -6.8294   -1.3337 H   0  0  0  0  0  0
    3.8963   -6.0535    0.2098 H   0  0  0  0  0  0
    4.4883   -5.1361   -1.1612 H   0  0  0  0  0  0
    3.1974   -4.9545    1.2532 H   0  0  0  0  0  0
    4.2973   -2.0662    0.3796 H   0  0  0  0  0  0
    3.8019   -1.0758    1.7268 H   0  0  0  0  0  0
    4.3259   -0.3355    0.2328 H   0  0  0  0  0  0
    4.1634    1.7923   -0.8122 H   0  0  0  0  0  0
    2.8444    2.9637   -0.9558 H   0  0  0  0  0  0
    3.5409    2.2476   -2.3881 H   0  0  0  0  0  0
    0.2428    0.5899    2.5732 H   0  0  0  0  0  0
    1.7246   -0.2510    3.0501 H   0  0  0  0  0  0
    1.1028    1.3362    4.5523 H   0  0  0  0  0  0
  1  2  1  0  0  0
  1 35  1  0  0  0
  1 36  1  0  0  0
  1 37  1  0  0  0
  2  3  1  0  0  0
  2 38  1  0  0  0
  2 39  1  0  0  0
  3  4  1  0  0  0
  3 40  1  0  0  0
  3 41  1  0  0  0
  4  5  1  0  0  0
  4 42  1  0  0  0
  4 43  1  0  0  0
  5  6  2  0  0  0
  5  7  1  0  0  0
  7  8  1  0  0  0
  8 12  1  0  0  0
  8  9  1  0  0  0
  8 31  1  0  0  0
  9 10  1  0  0  0
  9 30  1  0  0  0
  9 44  1  0  0  0
 10 11  1  0  0  0
 10 45  1  0  0  0
 10 46  1  0  0  0
 11 16  1  0  0  0
 11 12  1  0  0  0
 11 47  1  0  0  0
 12 13  1  0  0  0
 12 29  1  0  0  0
 13 14  1  0  0  0
 13 48  1  0  0  0
 13 49  1  0  0  0
 14 15  1  0  0  0
 14 28  1  0  0  0
 14 50  1  0  0  0
 15 25  1  0  0  0
 15 16  1  0  0  0
 15 27  1  0  0  0
 16 17  1  0  0  0
 16 51  1  0  0  0
 17 18  1  0  0  0
 17 52  1  0  0  0
 17 53  1  0  0  0
 18 19  1  0  0  0
 18 54  1  0  0  0
 18 55  1  0  0  0
 19 25  1  0  0  0
 19 20  2  0  0  0
 20 21  1  0  0  0
 20 56  1  0  0  0
 21 22  2  0  0  0
 21 23  1  0  0  0
 23 24  2  0  0  0
 23 57  1  0  0  0
 24 25  1  0  0  0
 24 58  1  0  0  0
 25 26  1  0  0  0
 26 59  1  0  0  0
 26 60  1  0  0  0
 26 61  1  0  0  0
 28 62  1  0  0  0
 29 63  1  0  0  0
 29 64  1  0  0  0
 29 65  1  0  0  0
 30 66  1  0  0  0
 30 67  1  0  0  0
 30 68  1  0  0  0
 31 32  2  0  0  0
 31 33  1  0  0  0
 33 34  1  0  0  0
 33 69  1  0  0  0
 33 70  1  0  0  0
 34 71  1  0  0  0
M  END
> <s_m_entry_id>
138

> <s_m_entry_name>
entry

> <i_lp_mmshare_version>
47013

> <i_f3d_flags>
0

> <s_epik_input>
W0NIM11bQ0gyXVtDSDJdW0NIMl1DKD1PKU9bQ0BdMShDKD1PKVtDSDJdW09IXSlbQ0BASF0oW0NIM10pW0NIMl1bQ0BIXShbQ0BAXTEyW0NIM10pW0NASF0zW0NAXShGKShbQ0BIXShbQ0gyXTIpW09IXSlbQ0BdNChbQ0gzXSlDKFtDSDJdW0NIMl0zKT1bQ0hdQyg9TylbQ0hdPVtDSF00

> <s_epik_cmdline>
J2VwaWtfcHl0aG9uJywgJy1waCcsICc3LjQnLCAnLXRuJywgJzgnLCAnLW1hJywgJzIwMCcsICctaW1hZScsICc8aW5maWxlLm1hZT4nLCAnLW9tYWUnLCAnPG91dGZpbGUubWFlPic=

> <r_epik_Ionization_Penalty>
  0.0000

> <r_epik_Ionization_Penalty_Charging>
  0.0000

> <r_epik_Ionization_Penalty_Neutral>
  0.0000

> <r_epik_State_Penalty>
  0.0000

> <r_epik_Charging_Adjusted_Penalty>
0

> <i_epik_Tot_Q>
0

> <i_epik_Tot_abs_Q>
0

> <s_lp_Force_Field>
OPLS3e

> <r_lp_Energy>
63.836702

> <b_lp_Chiralities_Consistent>
1

> <s_lp_Variant>
299-1

> <s_m_job_name>
ligprep_13

> <s_m_Source_Path>
/home/andre/Documents/projects/Esterase/data/FINAL_STUFF/Compounds/MAE_external

> <s_m_Source_File>
138.mae

> <i_m_Source_File_Index>
1

> <r_lp_tautomer_probability>
1

> <s_epik_Chemistry_Notes>
This compound has an ester and may undergo hydrolysis at high or low pH.

$$$$
