139
                    3D
 Schrodinger Suite 2021-1.
 48 49  0  0  1  0            999 V2000
   -0.9816    2.1908    2.8694 Cl  0  0  0  0  0  0
   -2.1854    0.9595    2.6684 C   0  0  0  0  0  0
   -2.6008    0.3021    3.8285 C   0  0  0  0  0  0
   -3.5547   -0.7079    3.7694 C   0  0  0  0  0  0
   -4.0998   -1.0697    2.5435 C   0  0  0  0  0  0
   -3.6930   -0.4205    1.3801 C   0  0  0  0  0  0
   -2.7359    0.6111    1.4076 C   0  0  0  0  0  0
   -2.3038    1.2996    0.0742 C   0  0  1  0  0  0
   -0.7588    1.2998   -0.0672 N   0  3  0  0  0  0
   -0.0364   -0.0578    0.0064 C   0  0  0  0  0  0
    1.4754    0.1910   -0.0472 C   0  0  0  0  0  0
    2.2914   -1.1157   -0.0091 C   0  0  0  0  0  0
    3.8233   -0.9092   -0.0356 C   0  0  0  0  0  0
    4.4006   -0.3728   -1.3541 C   0  0  0  0  0  0
    3.7255   -0.2781   -2.3823 O   0  0  0  0  0  0
    5.6984   -0.0310   -1.2277 O   0  0  0  0  0  0
    6.4183    0.4916   -2.3352 C   0  0  0  0  0  0
   -2.8675    0.6664   -1.2464 C   0  0  0  0  0  0
   -2.4475    1.3975   -2.5444 C   0  0  0  0  0  0
   -2.7742    2.9027   -2.4737 C   0  0  0  0  0  0
   -2.2465    3.5856   -1.1921 C   0  0  0  0  0  0
   -2.6799    2.8143    0.0688 C   0  0  0  0  0  0
   -3.3550    3.3573    0.9439 O   0  0  0  0  0  0
   -2.1790    0.5748    4.7851 H   0  0  0  0  0  0
   -3.8690   -1.2104    4.6724 H   0  0  0  0  0  0
   -4.8394   -1.8555    2.4931 H   0  0  0  0  0  0
   -4.1484   -0.7447    0.4580 H   0  0  0  0  0  0
   -0.5237    1.7318   -0.9494 H   0  0  0  0  0  0
   -0.3413   -0.5289    0.9410 H   0  0  0  0  0  0
   -0.3876   -0.6401   -0.8449 H   0  0  0  0  0  0
    1.7107    0.7547   -0.9504 H   0  0  0  0  0  0
    1.7668    0.8243    0.7923 H   0  0  0  0  0  0
    2.0366   -1.6684    0.8963 H   0  0  0  0  0  0
    1.9927   -1.7612   -0.8373 H   0  0  0  0  0  0
    4.1110   -0.2311    0.7686 H   0  0  0  0  0  0
    4.3124   -1.8609    0.1738 H   0  0  0  0  0  0
    7.4502    0.6895   -2.0453 H   0  0  0  0  0  0
    5.9776    1.4273   -2.6821 H   0  0  0  0  0  0
    6.4292   -0.2154   -3.1660 H   0  0  0  0  0  0
   -2.5887   -0.3850   -1.3226 H   0  0  0  0  0  0
   -3.9589    0.6714   -1.2131 H   0  0  0  0  0  0
   -1.3796    1.2618   -2.7213 H   0  0  0  0  0  0
   -2.9509    0.9495   -3.4022 H   0  0  0  0  0  0
   -2.3631    3.4064   -3.3494 H   0  0  0  0  0  0
   -3.8558    3.0385   -2.5331 H   0  0  0  0  0  0
   -1.1578    3.6350   -1.2071 H   0  0  0  0  0  0
   -2.6155    4.6099   -1.1269 H   0  0  0  0  0  0
   -0.3886    1.8821    0.6709 H   0  0  0  0  0  0
  1  2  1  0  0  0
  2  7  2  0  0  0
  2  3  1  0  0  0
  3  4  2  0  0  0
  3 24  1  0  0  0
  4  5  1  0  0  0
  4 25  1  0  0  0
  5  6  2  0  0  0
  5 26  1  0  0  0
  6  7  1  0  0  0
  6 27  1  0  0  0
  7  8  1  0  0  0
  8 22  1  0  0  0
  8  9  1  0  0  0
  8 18  1  0  0  0
  9 10  1  0  0  0
  9 28  1  0  0  0
  9 48  1  0  0  0
 10 11  1  0  0  0
 10 29  1  0  0  0
 10 30  1  0  0  0
 11 12  1  0  0  0
 11 31  1  0  0  0
 11 32  1  0  0  0
 12 13  1  0  0  0
 12 33  1  0  0  0
 12 34  1  0  0  0
 13 14  1  0  0  0
 13 35  1  0  0  0
 13 36  1  0  0  0
 14 15  2  0  0  0
 14 16  1  0  0  0
 16 17  1  0  0  0
 17 37  1  0  0  0
 17 38  1  0  0  0
 17 39  1  0  0  0
 18 19  1  0  0  0
 18 40  1  0  0  0
 18 41  1  0  0  0
 19 20  1  0  0  0
 19 42  1  0  0  0
 19 43  1  0  0  0
 20 21  1  0  0  0
 20 44  1  0  0  0
 20 45  1  0  0  0
 21 22  1  0  0  0
 21 46  1  0  0  0
 21 47  1  0  0  0
 22 23  2  0  0  0
M  CHG  1   9   1
M  END
> <s_m_entry_id>
139

> <s_m_entry_name>
entry

> <i_lp_mmshare_version>
47013

> <i_f3d_flags>
0

> <s_epik_input>
Q2xjMVtjSF1bY0hdW2NIXVtjSF1jMVtDQF0yKFtDSDJdW0NIMl1bQ0gyXVtDSDJdQzI9TylbTkhdW0NIMl1bQ0gyXVtDSDJdW0NIMl1DKD1PKU9bQ0gzXQ==

> <s_epik_cmdline>
J2VwaWtfcHl0aG9uJywgJy1waCcsICc3LjQnLCAnLXRuJywgJzgnLCAnLW1hJywgJzIwMCcsICctaW1hZScsICc8aW5maWxlLm1hZT4nLCAnLW9tYWUnLCAnPG91dGZpbGUubWFlPic=

> <r_epik_Ionization_Penalty>
  0.1928

> <r_epik_Ionization_Penalty_Charging>
  0.1928

> <r_epik_Ionization_Penalty_Neutral>
  0.0000

> <r_epik_State_Penalty>
  0.1825

> <r_epik_Charging_Adjusted_Penalty>
0.375369680415094

> <i_epik_Tot_Q>
1

> <i_epik_Tot_abs_Q>
1

> <s_lp_Force_Field>
OPLS3e

> <r_lp_Energy>
31.547976

> <b_lp_Chiralities_Consistent>
1

> <s_lp_Variant>
300a-1

> <s_m_job_name>
ligprep_14

> <s_m_Source_Path>
/home/andre/Documents/projects/Esterase/data/FINAL_STUFF/Compounds/MAE_external

> <s_m_Source_File>
139.mae

> <i_m_Source_File_Index>
1

> <r_lp_tautomer_probability>
0.99995

> <s_epik_Chemistry_Notes>
This compound has an ester and may undergo hydrolysis at high or low pH.

$$$$
