14
                    3D
 Schrodinger Suite 2021-1.
 46 49  0  0  1  0            999 V2000
   -6.8423   -3.6585   -2.7548 C   0  0  0  0  0  0
   -5.4778   -3.2393   -2.2217 C   0  0  0  0  0  0
   -4.5789   -4.0693   -2.0732 O   0  0  0  0  0  0
   -5.4376   -1.9064   -1.9399 O   0  0  0  0  0  0
   -4.2796   -1.2868   -1.5241 C   0  0  0  0  0  0
   -2.9371   -1.6344   -1.6993 C   0  0  0  0  0  0
   -2.0671   -0.7106   -1.1060 C   0  0  0  0  0  0
   -2.7490    0.3551   -0.5193 C   0  0  0  0  0  0
   -4.4722    0.2054   -0.6660 S   0  0  0  0  0  0
   -2.0382    1.4763    0.2153 C   0  0  0  0  0  0
   -0.5197    1.4177   -0.1029 C   0  0  0  0  0  0
    0.0090    0.0415    0.0148 N   0  0  1  0  0  0
   -0.5441   -0.7604   -1.1006 C   0  0  0  0  0  0
    1.4931    0.0024    0.0467 C   0  0  2  0  0  0
    2.0425   -1.4402    0.0782 C   0  0  0  0  0  0
    2.8615   -1.8743   -0.9728 C   0  0  0  0  0  0
    3.3603   -3.1761   -0.9988 C   0  0  0  0  0  0
    3.0358   -4.0674    0.0217 C   0  0  0  0  0  0
    2.2068   -3.6577    1.0641 C   0  0  0  0  0  0
    1.7055   -2.3558    1.0935 C   0  0  0  0  0  0
    0.8799   -1.9990    2.1039 F   0  0  0  0  0  0
    2.1151    0.7660    1.2545 C   0  0  0  0  0  0
    1.6067    0.7028    2.3747 O   0  0  0  0  0  0
    3.3804    1.6242    1.0707 C   0  0  0  0  0  0
    4.3327    1.3812   -0.0907 C   0  0  0  0  0  0
    3.4235    2.5713   -0.1195 C   0  0  0  0  0  0
   -7.0766   -3.1118   -3.6682 H   0  0  0  0  0  0
   -7.6171   -3.4511   -2.0164 H   0  0  0  0  0  0
   -6.8584   -4.7256   -2.9791 H   0  0  0  0  0  0
   -2.5927   -2.5114   -2.2264 H   0  0  0  0  0  0
   -2.4311    2.4633   -0.0291 H   0  0  0  0  0  0
   -2.1725    1.3817    1.2936 H   0  0  0  0  0  0
   -0.2789    1.8442   -1.0785 H   0  0  0  0  0  0
   -0.0461    2.0840    0.6178 H   0  0  0  0  0  0
   -0.2456   -1.7984   -0.9545 H   0  0  0  0  0  0
   -0.1602   -0.4271   -2.0663 H   0  0  0  0  0  0
    1.8365    0.4752   -0.8734 H   0  0  0  0  0  0
    3.1109   -1.2043   -1.7822 H   0  0  0  0  0  0
    3.9940   -3.4954   -1.8131 H   0  0  0  0  0  0
    3.4188   -5.0770    0.0004 H   0  0  0  0  0  0
    1.9449   -4.3530    1.8481 H   0  0  0  0  0  0
    3.7708    1.9988    2.0175 H   0  0  0  0  0  0
    5.3972    1.5357    0.0862 H   0  0  0  0  0  0
    4.1570    0.5691   -0.7921 H   0  0  0  0  0  0
    2.5929    2.5928   -0.8263 H   0  0  0  0  0  0
    3.8491    3.5631    0.0338 H   0  0  0  0  0  0
  1  2  1  0  0  0
  1 27  1  0  0  0
  1 28  1  0  0  0
  1 29  1  0  0  0
  2  3  2  0  0  0
  2  4  1  0  0  0
  4  5  1  0  0  0
  5  9  1  0  0  0
  5  6  2  0  0  0
  6  7  1  0  0  0
  6 30  1  0  0  0
  7 13  1  0  0  0
  7  8  2  0  0  0
  8  9  1  0  0  0
  8 10  1  0  0  0
 10 11  1  0  0  0
 10 31  1  0  0  0
 10 32  1  0  0  0
 11 12  1  0  0  0
 11 33  1  0  0  0
 11 34  1  0  0  0
 12 13  1  0  0  0
 12 14  1  0  0  0
 13 35  1  0  0  0
 13 36  1  0  0  0
 14 15  1  0  0  0
 14 22  1  0  0  0
 14 37  1  0  0  0
 15 20  1  0  0  0
 15 16  2  0  0  0
 16 17  1  0  0  0
 16 38  1  0  0  0
 17 18  2  0  0  0
 17 39  1  0  0  0
 18 19  1  0  0  0
 18 40  1  0  0  0
 19 20  2  0  0  0
 19 41  1  0  0  0
 20 21  1  0  0  0
 22 23  2  0  0  0
 22 24  1  0  0  0
 24 26  1  0  0  0
 24 25  1  0  0  0
 24 42  1  0  0  0
 25 26  1  0  0  0
 25 43  1  0  0  0
 25 44  1  0  0  0
 26 45  1  0  0  0
 26 46  1  0  0  0
M  END
> <s_m_entry_id>
14

> <s_m_entry_name>
CC(=O)OC1=CC2=C(S1)CCN(C2)C(C3=CC=CC=C3F)C(=O)C4CC4

> <i_lp_mmshare_version>
47013

> <i_f3d_flags>
0

> <s_epik_input>
W0NIM11DKD1PKU9jKFtjSF0xKXNjKGMxMilbQ0gyXVtDSDJdTihbQ0gyXTIpW0NAQEhdKEMoPU8pW0NIXTNbQ0gyXVtDSDJdMyljNFtjSF1bY0hdW2NIXVtjSF1jNEY=

> <s_epik_cmdline>
J2VwaWtfcHl0aG9uJywgJy1waCcsICc3LjAnLCAnLXRuJywgJzgnLCAnLW1hJywgJzIwMCcsICctaW1hZScsICc8aW5maWxlLm1hZT4nLCAnLW9tYWUnLCAnPG91dGZpbGUubWFlPic=

> <r_epik_Ionization_Penalty>
  0.2354

> <r_epik_Ionization_Penalty_Charging>
  0.0000

> <r_epik_Ionization_Penalty_Neutral>
  0.2354

> <r_epik_State_Penalty>
  0.2262

> <r_epik_Charging_Adjusted_Penalty>
0.226211578976463

> <i_epik_Tot_Q>
0

> <i_epik_Tot_abs_Q>
0

> <s_lp_Force_Field>
OPLS3e

> <r_lp_Energy>
49.15416

> <b_lp_Chiralities_Consistent>
1

> <s_lp_Variant>
CE2_6918456-1

> <s_m_job_name>
ligprep_44

> <s_m_Source_Path>
/home/andre/Documents/projects/Esterase/data/FINAL_STUFF/Compounds/MAE_external

> <s_m_Source_File>
14.mae

> <i_m_Source_File_Index>
1

> <r_lp_tautomer_probability>
0.999999960000001

$$$$
