140
                    3D
 Schrodinger Suite 2021-1.
 50 52  0  0  1  0            999 V2000
    3.3797   -3.1327    4.0744 C   0  0  0  0  0  0
    2.0534   -3.2967    3.6842 C   0  0  0  0  0  0
    1.0190   -3.0751    4.6035 C   0  0  0  0  0  0
    1.3229   -2.7176    5.9178 C   0  0  0  0  0  0
    2.6494   -2.5544    6.3091 C   0  0  0  0  0  0
    3.6715   -2.7596    5.3846 C   0  0  0  0  0  0
   -0.3074   -3.2427    4.2651 O   0  0  0  0  0  0
   -0.8028   -2.7643    3.0697 C   0  0  0  0  0  0
   -1.7851   -3.5096    2.4147 C   0  0  0  0  0  0
   -2.3252   -3.0624    1.2090 C   0  0  0  0  0  0
   -1.8925   -1.8589    0.6529 C   0  0  0  0  0  0
   -0.9256   -1.0900    1.3066 C   0  0  0  0  0  0
   -0.3891   -1.5439    2.5168 C   0  0  0  0  0  0
   -0.4473    0.2193    0.6955 C   0  0  2  0  0  0
    0.8975    0.0388    0.2433 O   0  0  0  0  0  0
   -0.6221    1.3444    1.6393 C   0  0  0  0  0  0
    1.6341    1.0426   -0.2861 C   0  0  0  0  0  0
    3.0641    0.5787   -0.6138 C   0  0  2  0  0  0
    1.2368    2.1890   -0.5042 O   0  0  0  0  0  0
    4.3031    1.3735   -0.2174 C   0  0  0  0  0  0
    3.8773    1.3661   -1.6610 C   0  0  1  0  0  0
    4.6022    0.5271   -2.7046 C   0  0  0  0  0  0
    4.9256    0.8979   -3.9577 C   0  0  0  0  0  0
    4.6673    2.2386   -4.6195 C   0  0  0  0  0  0
    6.3727    3.0685   -5.2209 Br  0  0  0  0  0  0
    3.4167    2.0408   -6.1539 Br  0  0  0  0  0  0
   -0.7586    2.2246    2.3782 N   0  0  0  0  0  0
    4.1606    2.6881    0.5831 C   0  0  0  0  0  0
    5.5213    0.5468    0.2439 C   0  0  0  0  0  0
    4.1780   -3.2970    3.3657 H   0  0  0  0  0  0
    1.8296   -3.5952    2.6705 H   0  0  0  0  0  0
    0.5288   -2.5610    6.6333 H   0  0  0  0  0  0
    2.8847   -2.2709    7.3244 H   0  0  0  0  0  0
    4.7005   -2.6333    5.6880 H   0  0  0  0  0  0
   -2.1249   -4.4431    2.8388 H   0  0  0  0  0  0
   -3.0782   -3.6497    0.7047 H   0  0  0  0  0  0
   -2.3139   -1.5252   -0.2843 H   0  0  0  0  0  0
    0.3563   -0.9486    3.0246 H   0  0  0  0  0  0
   -1.0689    0.4452   -0.1724 H   0  0  0  0  0  0
    3.1561   -0.5077   -0.5755 H   0  0  0  0  0  0
    3.4410    2.2969   -2.0232 H   0  0  0  0  0  0
    4.8682   -0.4745   -2.4005 H   0  0  0  0  0  0
    5.4296    0.1768   -4.5847 H   0  0  0  0  0  0
    4.2076    2.9479   -3.9341 H   0  0  0  0  0  0
    5.0785    3.2741    0.5264 H   0  0  0  0  0  0
    3.9620    2.4842    1.6356 H   0  0  0  0  0  0
    3.3622    3.3317    0.2174 H   0  0  0  0  0  0
    6.4522    1.0753    0.0360 H   0  0  0  0  0  0
    5.5822   -0.4252   -0.2453 H   0  0  0  0  0  0
    5.4781    0.3569    1.3168 H   0  0  0  0  0  0
  1  2  2  0  0  0
  1  6  1  0  0  0
  1 30  1  0  0  0
  2  3  1  0  0  0
  2 31  1  0  0  0
  3  4  2  0  0  0
  3  7  1  0  0  0
  4  5  1  0  0  0
  4 32  1  0  0  0
  5  6  2  0  0  0
  5 33  1  0  0  0
  6 34  1  0  0  0
  7  8  1  0  0  0
  8 13  2  0  0  0
  8  9  1  0  0  0
  9 10  2  0  0  0
  9 35  1  0  0  0
 10 11  1  0  0  0
 10 36  1  0  0  0
 11 12  2  0  0  0
 11 37  1  0  0  0
 12 13  1  0  0  0
 12 14  1  0  0  0
 13 38  1  0  0  0
 14 15  1  0  0  0
 14 16  1  0  0  0
 14 39  1  0  0  0
 15 17  1  0  0  0
 16 27  3  0  0  0
 17 18  1  0  0  0
 17 19  2  0  0  0
 18 21  1  0  0  0
 18 20  1  0  0  0
 18 40  1  0  0  0
 20 21  1  0  0  0
 20 28  1  0  0  0
 20 29  1  0  0  0
 21 22  1  0  0  0
 21 41  1  0  0  0
 22 23  2  0  0  0
 22 42  1  0  0  0
 23 24  1  0  0  0
 23 43  1  0  0  0
 24 25  1  0  0  0
 24 26  1  0  0  0
 24 44  1  0  0  0
 28 45  1  0  0  0
 28 46  1  0  0  0
 28 47  1  0  0  0
 29 48  1  0  0  0
 29 49  1  0  0  0
 29 50  1  0  0  0
M  END
> <s_m_entry_id>
140

> <s_m_entry_name>
entry

> <i_lp_mmshare_version>
47013

> <i_f3d_flags>
0

> <s_epik_input>
W2NIXTFbY0hdW2NIXVtjSF1bY0hdYzFPYzJbY0hdW2NIXVtjSF1jKFtjSF0yKVtDQEBIXShDI04pT0MoPU8pW0NASF0oQzMoW0NIM10pW0NIM10pW0NAQEhdMy9bQ0hdPVtDSF1cW0NIXShCcilCcg==

> <s_epik_cmdline>
J2VwaWtfcHl0aG9uJywgJy1waCcsICc3LjQnLCAnLXRuJywgJzgnLCAnLW1hJywgJzIwMCcsICctaW1hZScsICc8aW5maWxlLm1hZT4nLCAnLW9tYWUnLCAnPG91dGZpbGUubWFlPic=

> <r_epik_Ionization_Penalty>
  0.0000

> <r_epik_Ionization_Penalty_Charging>
  0.0000

> <r_epik_Ionization_Penalty_Neutral>
  0.0000

> <r_epik_State_Penalty>
  0.0000

> <r_epik_Charging_Adjusted_Penalty>
0

> <i_epik_Tot_Q>
0

> <i_epik_Tot_abs_Q>
0

> <s_lp_Force_Field>
OPLS3e

> <r_lp_Energy>
39.426224

> <b_lp_Chiralities_Consistent>
1

> <s_lp_Variant>
301_trans-1

> <s_m_job_name>
ligprep_16

> <s_m_Source_Path>
/home/andre/Documents/projects/Esterase/data/FINAL_STUFF/Compounds/MAE_external

> <s_m_Source_File>
140.mae

> <i_m_Source_File_Index>
1

> <r_lp_tautomer_probability>
1

> <s_epik_Chemistry_Notes>
This compound has an ester and may undergo hydrolysis at high or low pH.

$$$$
