141
                    3D
 Schrodinger Suite 2021-1.
 54 56  0  0  1  0            999 V2000
   -1.7828   -1.0600   -6.3720 C   0  0  0  0  0  0
   -2.3401   -1.7758   -5.3045 C   0  0  0  0  0  0
   -2.7626   -3.0943   -5.5194 C   0  0  0  0  0  0
   -2.6196   -3.6897   -6.7698 C   0  0  0  0  0  0
   -2.0564   -2.9661   -7.8172 C   0  0  0  0  0  0
   -1.6379   -1.6525   -7.6238 C   0  0  0  0  0  0
   -2.5068   -1.1279   -3.9695 C   0  0  0  0  0  0
   -3.1859    0.0962   -3.9122 C   0  0  0  0  0  0
   -3.4130    0.7399   -2.7013 C   0  0  0  0  0  0
   -2.9593    0.1681   -1.5197 C   0  0  0  0  0  0
   -2.2572   -1.0386   -1.5401 C   0  0  0  0  0  0
   -2.0183   -1.6935   -2.7672 C   0  0  0  0  0  0
   -1.1997   -2.9874   -2.7894 C   0  0  0  0  0  0
   -1.7859   -1.6146   -0.2049 C   0  0  0  0  0  0
   -0.3944   -1.3759    0.0072 O   0  0  0  0  0  0
    0.0654   -0.1880    0.4655 C   0  0  0  0  0  0
    1.6058   -0.1879    0.5795 C   0  0  1  0  0  0
   -0.6388    0.7749    0.7760 O   0  0  0  0  0  0
    2.4537    1.0469    0.3218 C   0  0  0  0  0  0
    2.3470    0.5358    1.7383 C   0  0  1  0  0  0
    1.5840    1.3214    2.7987 C   0  0  0  0  0  0
    1.9887    2.4669    3.3779 C   0  0  0  0  0  0
    3.2878    3.2108    3.1028 C   0  0  1  0  0  0
    3.7749    0.7891   -0.4246 C   0  0  0  0  0  0
    1.8133    2.3947   -0.0933 C   0  0  0  0  0  0
    2.9132    4.8539    2.5131 Cl  0  0  0  0  0  0
    4.2294    3.2880    4.3225 C   0  0  0  0  0  0
    5.3436    3.9633    4.0383 F   0  0  0  0  0  0
    3.6502    3.8740    5.3717 F   0  0  0  0  0  0
    4.6055    2.0671    4.7059 F   0  0  0  0  0  0
   -1.4544   -0.0403   -6.2310 H   0  0  0  0  0  0
   -3.2115   -3.6604   -4.7162 H   0  0  0  0  0  0
   -2.9474   -4.7068   -6.9274 H   0  0  0  0  0  0
   -1.9463   -3.4264   -8.7881 H   0  0  0  0  0  0
   -1.2039   -1.0955   -8.4411 H   0  0  0  0  0  0
   -3.5628    0.5497   -4.8180 H   0  0  0  0  0  0
   -3.9479    1.6778   -2.6783 H   0  0  0  0  0  0
   -3.1477    0.6741   -0.5837 H   0  0  0  0  0  0
   -0.4225   -2.9908   -2.0266 H   0  0  0  0  0  0
   -0.6626   -3.1146   -3.7290 H   0  0  0  0  0  0
   -1.8430   -3.8524   -2.6274 H   0  0  0  0  0  0
   -2.3781   -1.2052    0.6159 H   0  0  0  0  0  0
   -1.9728   -2.6887   -0.1955 H   0  0  0  0  0  0
    2.0186   -1.1464    0.2620 H   0  0  0  0  0  0
    3.2218    0.0161    2.1312 H   0  0  0  0  0  0
    0.6372    0.9018    3.1055 H   0  0  0  0  0  0
    1.3458    2.9178    4.1203 H   0  0  0  0  0  0
    3.8243    2.7205    2.2900 H   0  0  0  0  0  0
    4.5054    1.5682   -0.2041 H   0  0  0  0  0  0
    3.6178    0.7716   -1.5034 H   0  0  0  0  0  0
    4.2262   -0.1644   -0.1469 H   0  0  0  0  0  0
    2.5244    3.2118    0.0283 H   0  0  0  0  0  0
    0.9349    2.6641    0.4899 H   0  0  0  0  0  0
    1.5145    2.3749   -1.1416 H   0  0  0  0  0  0
  1  2  2  0  0  0
  1  6  1  0  0  0
  1 31  1  0  0  0
  2  3  1  0  0  0
  2  7  1  0  0  0
  3  4  2  0  0  0
  3 32  1  0  0  0
  4  5  1  0  0  0
  4 33  1  0  0  0
  5  6  2  0  0  0
  5 34  1  0  0  0
  6 35  1  0  0  0
  7 12  2  0  0  0
  7  8  1  0  0  0
  8  9  2  0  0  0
  8 36  1  0  0  0
  9 10  1  0  0  0
  9 37  1  0  0  0
 10 11  2  0  0  0
 10 38  1  0  0  0
 11 12  1  0  0  0
 11 14  1  0  0  0
 12 13  1  0  0  0
 13 39  1  0  0  0
 13 40  1  0  0  0
 13 41  1  0  0  0
 14 15  1  0  0  0
 14 42  1  0  0  0
 14 43  1  0  0  0
 15 16  1  0  0  0
 16 17  1  0  0  0
 16 18  2  0  0  0
 17 20  1  0  0  0
 17 19  1  0  0  0
 17 44  1  0  0  0
 19 20  1  0  0  0
 19 24  1  0  0  0
 19 25  1  0  0  0
 20 21  1  0  0  0
 20 45  1  0  0  0
 21 22  2  0  0  0
 21 46  1  0  0  0
 22 23  1  0  0  0
 22 47  1  0  0  0
 23 26  1  0  0  0
 23 27  1  0  0  0
 23 48  1  0  0  0
 24 49  1  0  0  0
 24 50  1  0  0  0
 24 51  1  0  0  0
 25 52  1  0  0  0
 25 53  1  0  0  0
 25 54  1  0  0  0
 27 28  1  0  0  0
 27 29  1  0  0  0
 27 30  1  0  0  0
M  END
> <s_m_entry_id>
141

> <s_m_entry_name>
entry

> <i_lp_mmshare_version>
47013

> <i_f3d_flags>
0

> <s_epik_input>
W2NIXTFbY0hdW2NIXVtjSF1bY0hdYzEtYzJbY0hdW2NIXVtjSF1jKGMyW0NIM10pW0NIMl1PQyg9TylbQ0BASF0oQzMoW0NIM10pW0NIM10pW0NAQEhdMy9bQ0hdPVtDSF1cW0NAQEhdKENsKUMoRikoRilG

> <s_epik_cmdline>
J2VwaWtfcHl0aG9uJywgJy1waCcsICc3LjQnLCAnLXRuJywgJzgnLCAnLW1hJywgJzIwMCcsICctaW1hZScsICc8aW5maWxlLm1hZT4nLCAnLW9tYWUnLCAnPG91dGZpbGUubWFlPic=

> <r_epik_Ionization_Penalty>
  0.0000

> <r_epik_Ionization_Penalty_Charging>
  0.0000

> <r_epik_Ionization_Penalty_Neutral>
  0.0000

> <r_epik_State_Penalty>
  0.0000

> <r_epik_Charging_Adjusted_Penalty>
0

> <i_epik_Tot_Q>
0

> <i_epik_Tot_abs_Q>
0

> <s_lp_Force_Field>
OPLS3e

> <r_lp_Energy>
44.574729

> <b_lp_Chiralities_Consistent>
1

> <s_lp_Variant>
303_R-cis-1

> <s_m_job_name>
ligprep_18

> <s_m_Source_Path>
/home/andre/Documents/projects/Esterase/data/FINAL_STUFF/Compounds/MAE_external

> <s_m_Source_File>
141.mae

> <i_m_Source_File_Index>
1

> <r_lp_tautomer_probability>
1

> <s_epik_Chemistry_Notes>
This compound has an ester and may undergo hydrolysis at high or low pH.

$$$$
