142
                    3D
 Schrodinger Suite 2021-1.
 82 85  0  0  1  0            999 V2000
   -1.5598    3.4625   -3.7875 C   0  0  0  0  0  0
   -0.9271    2.4360   -3.0917 C   0  0  0  0  0  0
   -1.5295    1.8773   -1.9642 C   0  0  0  0  0  0
   -2.7799    2.3436   -1.5384 C   0  0  0  0  0  0
   -3.4129    3.3710   -2.2330 C   0  0  0  0  0  0
   -2.7998    3.9264   -3.3539 C   0  0  0  0  0  0
   -0.8620    0.8598   -1.3270 O   0  0  0  0  0  0
   -0.9963    0.4261    0.2419 P   0  0  2  0  0  0
   -2.3101   -0.1732    0.6040 O   0  0  0  0  0  0
   -0.5403    1.8319    1.0904 N   0  0  3  0  0  0
   -0.3381    1.8654    2.5380 C   0  0  1  0  0  0
    0.8760    2.7323    2.9292 C   0  0  0  0  0  0
   -1.6074    2.3126    3.2364 C   0  0  0  0  0  0
   -1.8102    3.4670    3.6226 O   0  0  0  0  0  0
   -2.4763    1.2792    3.3656 O   0  0  0  0  0  0
   -3.7799    1.4446    3.9205 C   0  0  0  0  0  0
   -4.2641    0.0612    4.3800 C   0  0  0  0  0  0
   -4.7375    2.0716    2.8880 C   0  0  0  0  0  0
    0.2604   -0.5914    0.4562 O   0  0  0  0  0  0
    1.5830   -0.2354    0.0837 C   0  0  0  0  0  0
    2.4479   -1.5017   -0.0166 C   0  0  2  0  0  0
    1.9046   -2.6105   -0.9140 C   0  0  2  0  0  0
    2.6561   -3.8372   -0.4080 C   0  0  2  0  0  0
    2.6507   -3.5672    1.1397 C   0  0  1  0  0  0
    2.4685   -2.1454    1.2542 O   0  0  0  0  0  0
    2.1238   -2.3633   -2.3061 O   0  0  0  0  0  0
    3.9780   -3.9216   -0.9335 O   0  0  0  0  0  0
    1.4838   -4.2090    1.9050 C   0  0  0  0  0  0
    3.9447   -3.8450    1.8011 C   0  0  0  0  0  0
    4.9574   -4.0613    2.3193 N   0  0  0  0  0  0
    1.1592   -1.8389   -3.0962 C   0  0  0  0  0  0
    0.0172   -1.5393   -2.7408 O   0  0  0  0  0  0
    1.6362   -1.6364   -4.5432 C   0  0  0  0  0  0
    1.2120   -0.2638   -5.1045 C   0  0  0  0  0  0
    1.1555   -2.7933   -5.4399 C   0  0  0  0  0  0
    2.0055   -5.1564   -0.8896 C   0  0  0  0  0  0
    1.4846   -5.5284    2.3391 N   0  0  0  0  0  0
    0.2453   -5.7991    2.9721 C   0  0  0  0  0  0
   -0.5298   -4.6165    2.9162 C   0  0  0  0  0  0
    0.2421   -3.6761    2.2573 C   0  0  0  0  0  0
    2.4909   -6.4184    2.1880 N   0  0  0  0  0  0
    2.2249   -7.6398    2.7106 C   0  0  0  0  0  0
    1.0933   -8.0333    3.3393 N   0  0  0  0  0  0
    0.1087   -7.1114    3.4670 C   0  0  0  0  0  0
   -1.0591   -7.5134    4.1112 N   0  0  0  0  0  0
   -1.0921    3.8962   -4.6592 H   0  0  0  0  0  0
    0.0337    2.0733   -3.4253 H   0  0  0  0  0  0
   -3.2672    1.9162   -0.6752 H   0  0  0  0  0  0
   -4.3762    3.7337   -1.9057 H   0  0  0  0  0  0
   -3.2917    4.7223   -3.8937 H   0  0  0  0  0  0
   -0.4515    2.7224    0.5999 H   0  0  0  0  0  0
   -0.1285    0.8437    2.8596 H   0  0  0  0  0  0
    1.0435    2.7222    4.0072 H   0  0  0  0  0  0
    0.7544    3.7720    2.6202 H   0  0  0  0  0  0
    1.7876    2.3590    2.4616 H   0  0  0  0  0  0
   -3.7235    2.0896    4.7994 H   0  0  0  0  0  0
   -5.2572    0.1198    4.8263 H   0  0  0  0  0  0
   -3.5934   -0.3594    5.1302 H   0  0  0  0  0  0
   -4.3140   -0.6418    3.5470 H   0  0  0  0  0  0
   -5.7451    2.1658    3.2935 H   0  0  0  0  0  0
   -4.7970    1.4657    1.9829 H   0  0  0  0  0  0
   -4.4115    3.0701    2.5963 H   0  0  0  0  0  0
    1.5873    0.2850   -0.8749 H   0  0  0  0  0  0
    1.9987    0.4504    0.8224 H   0  0  0  0  0  0
    3.4686   -1.2254   -0.2892 H   0  0  0  0  0  0
    0.8366   -2.7539   -0.7336 H   0  0  0  0  0  0
    4.2088   -4.8482   -1.0311 H   0  0  0  0  0  0
    2.7269   -1.6637   -4.5345 H   0  0  0  0  0  0
    1.6168    0.5514   -4.5033 H   0  0  0  0  0  0
    0.1270   -0.1497   -5.1312 H   0  0  0  0  0  0
    1.5810   -0.1257   -6.1212 H   0  0  0  0  0  0
    1.5278   -3.7556   -5.0853 H   0  0  0  0  0  0
    1.5114   -2.6693   -6.4632 H   0  0  0  0  0  0
    0.0664   -2.8525   -5.4761 H   0  0  0  0  0  0
    0.9632   -5.2308   -0.5782 H   0  0  0  0  0  0
    2.5281   -6.0331   -0.5060 H   0  0  0  0  0  0
    2.0120   -5.2304   -1.9786 H   0  0  0  0  0  0
   -1.5282   -4.4541    3.2950 H   0  0  0  0  0  0
   -0.0759   -2.6657    2.0451 H   0  0  0  0  0  0
    3.0038   -8.3822    2.6150 H   0  0  0  0  0  0
   -1.8174   -6.8566    4.2241 H   0  0  0  0  0  0
   -1.1303   -8.4598    4.4561 H   0  0  0  0  0  0
  1  2  2  0  0  0
  1  6  1  0  0  0
  1 46  1  0  0  0
  2  3  1  0  0  0
  2 47  1  0  0  0
  3  4  2  0  0  0
  3  7  1  0  0  0
  4  5  1  0  0  0
  4 48  1  0  0  0
  5  6  2  0  0  0
  5 49  1  0  0  0
  6 50  1  0  0  0
  7  8  1  0  0  0
  8  9  2  0  0  0
  8 10  1  0  0  0
  8 19  1  0  0  0
 10 11  1  0  0  0
 10 51  1  0  0  0
 11 12  1  0  0  0
 11 13  1  0  0  0
 11 52  1  0  0  0
 12 53  1  0  0  0
 12 54  1  0  0  0
 12 55  1  0  0  0
 13 14  2  0  0  0
 13 15  1  0  0  0
 15 16  1  0  0  0
 16 17  1  0  0  0
 16 18  1  0  0  0
 16 56  1  0  0  0
 17 57  1  0  0  0
 17 58  1  0  0  0
 17 59  1  0  0  0
 18 60  1  0  0  0
 18 61  1  0  0  0
 18 62  1  0  0  0
 19 20  1  0  0  0
 20 21  1  0  0  0
 20 63  1  0  0  0
 20 64  1  0  0  0
 21 25  1  0  0  0
 21 22  1  0  0  0
 21 65  1  0  0  0
 22 23  1  0  0  0
 22 26  1  0  0  0
 22 66  1  0  0  0
 23 24  1  0  0  0
 23 27  1  0  0  0
 23 36  1  0  0  0
 24 25  1  0  0  0
 24 28  1  0  0  0
 24 29  1  0  0  0
 26 31  1  0  0  0
 27 67  1  0  0  0
 28 40  2  0  0  0
 28 37  1  0  0  0
 29 30  3  0  0  0
 31 32  2  0  0  0
 31 33  1  0  0  0
 33 34  1  0  0  0
 33 35  1  0  0  0
 33 68  1  0  0  0
 34 69  1  0  0  0
 34 70  1  0  0  0
 34 71  1  0  0  0
 35 72  1  0  0  0
 35 73  1  0  0  0
 35 74  1  0  0  0
 36 75  1  0  0  0
 36 76  1  0  0  0
 36 77  1  0  0  0
 37 38  1  0  0  0
 37 41  1  0  0  0
 38 39  2  0  0  0
 38 44  1  0  0  0
 39 40  1  0  0  0
 39 78  1  0  0  0
 40 79  1  0  0  0
 41 42  2  0  0  0
 42 43  1  0  0  0
 42 80  1  0  0  0
 43 44  2  0  0  0
 44 45  1  0  0  0
 45 81  1  0  0  0
 45 82  1  0  0  0
M  END
> <s_m_entry_id>
142

> <s_m_entry_name>
entry

> <i_lp_mmshare_version>
47013

> <i_f3d_flags>
0

> <s_epik_input>
W2NIXTFbY0hdW2NIXVtjSF1bY0hdYzFPW1BAXSg9TykoW05IXVtDQEBIXShbQ0gzXSlDKD1PKU9bQ0hdKFtDSDNdKVtDSDNdKU9bQ0gyXVtDQEhdKFtDQEhdKFtDQF0yKFtPSF0pW0NIM10pT0MoPU8pW0NIXShbQ0gzXSlbQ0gzXSlPW0NAQF0yKEMjTiljM1tjSF1bY0hdYyhuMzQpYyhbTkgyXSluW2NIXW40

> <s_epik_cmdline>
J2VwaWtfcHl0aG9uJywgJy1waCcsICc3LjQnLCAnLXRuJywgJzgnLCAnLW1hJywgJzIwMCcsICctaW1hZScsICc8aW5maWxlLm1hZT4nLCAnLW9tYWUnLCAnPG91dGZpbGUubWFlPic=

> <r_epik_Ionization_Penalty>
  0.0007

> <r_epik_Ionization_Penalty_Charging>
  0.0000

> <r_epik_Ionization_Penalty_Neutral>
  0.0007

> <r_epik_State_Penalty>
  0.0000

> <r_epik_Charging_Adjusted_Penalty>
0

> <i_epik_Tot_Q>
0

> <i_epik_Tot_abs_Q>
0

> <s_lp_Force_Field>
OPLS3e

> <r_lp_Energy>
24.269933

> <b_lp_Chiralities_Consistent>
1

> <s_lp_Variant>
304-1

> <s_m_job_name>
ligprep_19

> <s_m_Source_Path>
/home/andre/Documents/projects/Esterase/data/FINAL_STUFF/Compounds/MAE_external

> <s_m_Source_File>
142.mae

> <i_m_Source_File_Index>
1

> <r_lp_tautomer_probability>
1

> <s_epik_Chemistry_Notes>
This compound has an ester and may undergo hydrolysis at high or low pH.

$$$$
