143
                    3D
 Schrodinger Suite 2021-1.
 71 74  0  0  1  0            999 V2000
    1.9076    2.3730    2.4343 C   0  0  0  0  0  0
    0.8115    1.5243    2.5622 C   0  0  0  0  0  0
   -0.0273    1.2882    1.4725 C   0  0  0  0  0  0
    0.2317    1.9188    0.2490 C   0  0  0  0  0  0
    1.3260    2.7694    0.1196 C   0  0  0  0  0  0
    2.1602    2.9919    1.2124 C   0  0  0  0  0  0
   -1.0935    0.4437    1.6722 O   0  0  0  0  0  0
   -1.9141   -0.4194    0.5537 P   0  0  2  0  0  0
   -1.1598   -0.7226   -0.6944 O   0  0  0  0  0  0
   -3.3771    0.4323    0.3805 N   0  0  3  0  0  0
   -3.5030    1.7006   -0.3344 C   0  0  1  0  0  0
   -4.5936    1.6394   -1.4227 C   0  0  0  0  0  0
   -3.7517    2.8280    0.6464 C   0  0  0  0  0  0
   -4.8778    3.1923    0.9957 O   0  0  0  0  0  0
   -2.5852    3.3637    1.0842 O   0  0  0  0  0  0
   -2.5475    4.4009    2.0639 C   0  0  0  0  0  0
   -1.1943    5.1162    1.9387 C   0  0  0  0  0  0
   -2.7583    3.8220    3.4770 C   0  0  0  0  0  0
   -2.3637   -1.7335    1.4077 O   0  0  0  0  0  0
   -2.9635   -2.8496    0.7673 C   0  0  0  0  0  0
   -1.9756   -4.0319    0.7311 C   0  0  2  0  0  0
   -1.4505   -4.5034    2.0872 C   0  0  2  0  0  0
   -0.1422   -5.2257    1.7191 C   0  0  2  0  0  0
    0.2916   -4.5188    0.3786 C   0  0  1  0  0  0
   -0.7810   -3.6184    0.0858 O   0  0  0  0  0  0
   -2.4051   -5.2617    2.8127 O   0  0  0  0  0  0
   -0.3382   -6.6282    1.5606 O   0  0  0  0  0  0
    1.5728   -3.6767    0.4533 C   0  0  0  0  0  0
    0.3497   -5.4376   -0.7812 C   0  0  0  0  0  0
    0.3923   -6.1548   -1.6893 N   0  0  0  0  0  0
    0.8719   -5.1643    2.8909 C   0  0  0  0  0  0
    2.8469   -4.2265    0.4032 N   0  0  0  0  0  0
    3.7979   -3.1820    0.5210 C   0  0  0  0  0  0
    3.0829   -1.9680    0.6589 C   0  0  0  0  0  0
    1.7401   -2.3018    0.6284 C   0  0  0  0  0  0
    3.1446   -5.5381    0.2646 N   0  0  0  0  0  0
    4.4738   -5.7980    0.2388 C   0  0  0  0  0  0
    5.4856   -4.9047    0.3355 N   0  0  0  0  0  0
    5.1428   -3.6009    0.4759 C   0  0  0  0  0  0
    6.1818   -2.6787    0.5777 N   0  0  0  0  0  0
    2.5565    2.5528    3.2786 H   0  0  0  0  0  0
    0.6125    1.0452    3.5095 H   0  0  0  0  0  0
   -0.4066    1.7604   -0.6051 H   0  0  0  0  0  0
    1.5252    3.2563   -0.8235 H   0  0  0  0  0  0
    3.0080    3.6534    1.1120 H   0  0  0  0  0  0
   -4.2556   -0.0215    0.6331 H   0  0  0  0  0  0
   -2.5571    1.8911   -0.8407 H   0  0  0  0  0  0
   -4.6627    2.5792   -1.9728 H   0  0  0  0  0  0
   -5.5791    1.4236   -1.0062 H   0  0  0  0  0  0
   -4.3699    0.8589   -2.1511 H   0  0  0  0  0  0
   -3.3315    5.1308    1.8525 H   0  0  0  0  0  0
   -1.1197    5.9429    2.6456 H   0  0  0  0  0  0
   -1.0578    5.5280    0.9382 H   0  0  0  0  0  0
   -0.3642    4.4376    2.1348 H   0  0  0  0  0  0
   -2.6978    4.6035    4.2348 H   0  0  0  0  0  0
   -2.0063    3.0682    3.7136 H   0  0  0  0  0  0
   -3.7381    3.3540    3.5737 H   0  0  0  0  0  0
   -3.8552   -3.1319    1.3272 H   0  0  0  0  0  0
   -3.2986   -2.6035   -0.2422 H   0  0  0  0  0  0
   -2.4275   -4.8469    0.1613 H   0  0  0  0  0  0
   -1.2006   -3.6194    2.6779 H   0  0  0  0  0  0
   -3.1427   -4.6902    3.0393 H   0  0  0  0  0  0
   -1.0563   -6.7692    0.9393 H   0  0  0  0  0  0
    1.1360   -4.1363    3.1413 H   0  0  0  0  0  0
    1.7978   -5.6932    2.6629 H   0  0  0  0  0  0
    0.4633   -5.6147    3.7972 H   0  0  0  0  0  0
    3.4771   -0.9692    0.7755 H   0  0  0  0  0  0
    0.9331   -1.5914    0.7256 H   0  0  0  0  0  0
    4.7570   -6.8345    0.1284 H   0  0  0  0  0  0
    5.9693   -1.6969    0.6776 H   0  0  0  0  0  0
    7.1359   -3.0073    0.5410 H   0  0  0  0  0  0
  1  2  2  0  0  0
  1  6  1  0  0  0
  1 41  1  0  0  0
  2  3  1  0  0  0
  2 42  1  0  0  0
  3  4  2  0  0  0
  3  7  1  0  0  0
  4  5  1  0  0  0
  4 43  1  0  0  0
  5  6  2  0  0  0
  5 44  1  0  0  0
  6 45  1  0  0  0
  7  8  1  0  0  0
  8  9  2  0  0  0
  8 10  1  0  0  0
  8 19  1  0  0  0
 10 11  1  0  0  0
 10 46  1  0  0  0
 11 12  1  0  0  0
 11 13  1  0  0  0
 11 47  1  0  0  0
 12 48  1  0  0  0
 12 49  1  0  0  0
 12 50  1  0  0  0
 13 14  2  0  0  0
 13 15  1  0  0  0
 15 16  1  0  0  0
 16 17  1  0  0  0
 16 18  1  0  0  0
 16 51  1  0  0  0
 17 52  1  0  0  0
 17 53  1  0  0  0
 17 54  1  0  0  0
 18 55  1  0  0  0
 18 56  1  0  0  0
 18 57  1  0  0  0
 19 20  1  0  0  0
 20 21  1  0  0  0
 20 58  1  0  0  0
 20 59  1  0  0  0
 21 22  1  0  0  0
 21 25  1  0  0  0
 21 60  1  0  0  0
 22 23  1  0  0  0
 22 26  1  0  0  0
 22 61  1  0  0  0
 23 24  1  0  0  0
 23 27  1  0  0  0
 23 31  1  0  0  0
 24 25  1  0  0  0
 24 28  1  0  0  0
 24 29  1  0  0  0
 26 62  1  0  0  0
 27 63  1  0  0  0
 28 32  1  0  0  0
 28 35  2  0  0  0
 29 30  3  0  0  0
 31 64  1  0  0  0
 31 65  1  0  0  0
 31 66  1  0  0  0
 32 33  1  0  0  0
 32 36  1  0  0  0
 33 34  2  0  0  0
 33 39  1  0  0  0
 34 35  1  0  0  0
 34 67  1  0  0  0
 35 68  1  0  0  0
 36 37  2  0  0  0
 37 38  1  0  0  0
 37 69  1  0  0  0
 38 39  2  0  0  0
 39 40  1  0  0  0
 40 70  1  0  0  0
 40 71  1  0  0  0
M  END
> <s_m_entry_id>
143

> <s_m_entry_name>
entry

> <i_lp_mmshare_version>
47013

> <i_f3d_flags>
0

> <s_epik_input>
W2NIXTFbY0hdW2NIXVtjSF1bY0hdYzFPW1BAXSg9TykoW05IXVtDQEBIXShbQ0gzXSlDKD1PKU9bQ0hdKFtDSDNdKVtDSDNdKU9bQ0gyXVtDQEhdKFtDQEBIXShbT0hdKVtDQF0yKFtPSF0pW0NIM10pT1tDQEBdMihDI04pYzNbY0hdW2NIXWMobjM0KWMoW05IMl0pbltjSF1uNA==

> <s_epik_cmdline>
J2VwaWtfcHl0aG9uJywgJy1waCcsICc3LjQnLCAnLXRuJywgJzgnLCAnLW1hJywgJzIwMCcsICctaW1hZScsICc8aW5maWxlLm1hZT4nLCAnLW9tYWUnLCAnPG91dGZpbGUubWFlPic=

> <r_epik_Ionization_Penalty>
  0.0003

> <r_epik_Ionization_Penalty_Charging>
  0.0000

> <r_epik_Ionization_Penalty_Neutral>
  0.0003

> <r_epik_State_Penalty>
  0.0000

> <r_epik_Charging_Adjusted_Penalty>
0

> <i_epik_Tot_Q>
0

> <i_epik_Tot_abs_Q>
0

> <s_lp_Force_Field>
OPLS3e

> <r_lp_Energy>
23.82855

> <b_lp_Chiralities_Consistent>
1

> <s_lp_Variant>
305-1

> <s_m_job_name>
ligprep_19

> <s_m_Source_Path>
/home/andre/Documents/projects/Esterase/data/FINAL_STUFF/Compounds/MAE_external

> <s_m_Source_File>
143.mae

> <i_m_Source_File_Index>
1

> <r_lp_tautomer_probability>
1

> <s_epik_Chemistry_Notes>
This compound has an ester and may undergo hydrolysis at high or low pH.

$$$$
