145
                    3D
 Schrodinger Suite 2021-1.
 78 83  0  0  1  0            999 V2000
   -2.9957    0.6033    0.7465 C   0  0  0  0  0  0
   -2.0987    1.6771    0.6972 C   0  0  0  0  0  0
   -0.7226    1.4556    0.3978 C   0  0  0  0  0  0
   -0.2238    0.1590    0.1432 C   0  0  0  0  0  0
   -1.1638   -0.8826    0.1849 C   0  0  0  0  0  0
   -2.5076   -0.6721    0.4824 C   0  0  0  0  0  0
   -0.1772    2.7378    0.4250 N   0  0  0  0  0  0
   -1.2183    3.5970    0.7187 C   0  0  0  0  0  0
   -2.3705    2.9994    0.9014 N   0  0  0  0  0  0
   -1.0202    4.9582    0.8024 O   0  0  0  0  0  0
    1.1803   -0.1876   -0.1861 C   0  0  0  0  0  0
    2.1241    0.0106    0.5829 O   0  0  0  0  0  0
    1.2721   -0.6871   -1.4553 O   0  0  0  0  0  0
    2.5323   -1.1089   -1.9023 C   0  0  1  0  0  0
    2.2975   -1.8244   -3.2283 C   0  0  0  0  0  0
    3.4028   -0.0333   -2.1588 O   0  0  0  0  0  0
    4.7068   -0.1830   -1.7995 C   0  0  0  0  0  0
    5.2294   -1.1760   -1.2823 O   0  0  0  0  0  0
    5.3418    0.9615   -2.1235 O   0  0  0  0  0  0
    6.7421    1.1332   -1.9178 C   0  0  0  0  0  0
    7.0631    2.6390   -1.8247 C   0  0  0  0  0  0
    8.5634    2.8585   -1.5434 C   0  0  0  0  0  0
    9.4525    2.1600   -2.5945 C   0  0  0  0  0  0
    9.0874    0.6715   -2.7773 C   0  0  0  0  0  0
    7.5804    0.4774   -3.0415 C   0  0  0  0  0  0
   -2.1586    5.7712    1.0820 C   0  0  0  0  0  0
   -1.7205    7.2383    1.1144 C   0  0  0  0  0  0
    1.2025    3.1526    0.1511 C   0  0  0  0  0  0
    1.6836    3.0666   -1.2991 C   0  0  0  0  0  0
    0.8682    2.6126   -2.3419 C   0  0  0  0  0  0
    1.3734    2.5204   -3.6351 C   0  0  0  0  0  0
    2.6902    2.9012   -3.9224 C   0  0  0  0  0  0
    3.4871    3.3819   -2.8768 C   0  0  0  0  0  0
    2.9935    3.4569   -1.5784 C   0  0  0  0  0  0
    3.2481    2.7779   -5.3069 C   0  0  0  0  0  0
    4.5406    2.2474   -5.4522 C   0  0  0  0  0  0
    5.1086    2.0419   -6.7054 C   0  0  0  0  0  0
    4.3950    2.3753   -7.8491 C   0  0  0  0  0  0
    3.1266    2.9353   -7.7335 C   0  0  0  0  0  0
    2.5449    3.1690   -6.4762 C   0  0  0  0  0  0
    1.2134    3.8754   -6.4787 C   0  0  0  0  0  0
    0.2318    3.5575   -7.2957 N   0  0  0  0  0  0
   -0.7871    4.4315   -6.9988 N   0  0  0  0  0  0
   -0.3468    5.2615   -6.0020 N   0  0  0  0  0  0
    0.9415    4.8955   -5.6934 N   0  5  0  0  0  0
   -4.0405    0.7578    0.9728 H   0  0  0  0  0  0
   -0.8485   -1.8985   -0.0107 H   0  0  0  0  0  0
   -3.1830   -1.5148    0.5072 H   0  0  0  0  0  0
    2.9231   -1.8496   -1.1981 H   0  0  0  0  0  0
    1.8886   -1.1334   -3.9679 H   0  0  0  0  0  0
    1.5975   -2.6493   -3.0901 H   0  0  0  0  0  0
    3.2373   -2.2292   -3.6057 H   0  0  0  0  0  0
    7.0145    0.6792   -0.9624 H   0  0  0  0  0  0
    6.8183    3.1345   -2.7658 H   0  0  0  0  0  0
    6.4787    3.1053   -1.0303 H   0  0  0  0  0  0
    8.7848    3.9262   -1.5216 H   0  0  0  0  0  0
    8.8069    2.4783   -0.5500 H   0  0  0  0  0  0
    9.3477    2.6748   -3.5507 H   0  0  0  0  0  0
   10.5024    2.2530   -2.3142 H   0  0  0  0  0  0
    9.6668    0.2462   -3.5975 H   0  0  0  0  0  0
    9.3734    0.1151   -1.8833 H   0  0  0  0  0  0
    7.3681   -0.5900   -3.1112 H   0  0  0  0  0  0
    7.3412    0.9349   -4.0029 H   0  0  0  0  0  0
   -2.9247    5.6327    0.3165 H   0  0  0  0  0  0
   -2.5965    5.4954    2.0433 H   0  0  0  0  0  0
   -2.5639    7.8927    1.3347 H   0  0  0  0  0  0
   -1.3028    7.5443    0.1549 H   0  0  0  0  0  0
   -0.9610    7.4044    1.8788 H   0  0  0  0  0  0
    1.3284    4.1830    0.4864 H   0  0  0  0  0  0
    1.8588    2.5601    0.7875 H   0  0  0  0  0  0
   -0.1523    2.3094   -2.1649 H   0  0  0  0  0  0
    0.7341    2.1354   -4.4160 H   0  0  0  0  0  0
    4.5032    3.6936   -3.0661 H   0  0  0  0  0  0
    3.6364    3.8155   -0.7877 H   0  0  0  0  0  0
    5.1092    1.9536   -4.5828 H   0  0  0  0  0  0
    6.0975    1.6157   -6.7878 H   0  0  0  0  0  0
    4.8289    2.2147   -8.8250 H   0  0  0  0  0  0
    2.6058    3.2175   -8.6374 H   0  0  0  0  0  0
  1  2  2  0  0  0
  1  6  1  0  0  0
  1 46  1  0  0  0
  2  3  1  0  0  0
  2  9  1  0  0  0
  3  4  2  0  0  0
  3  7  1  0  0  0
  4  5  1  0  0  0
  4 11  1  0  0  0
  5  6  2  0  0  0
  5 47  1  0  0  0
  6 48  1  0  0  0
  7  8  1  0  0  0
  7 28  1  0  0  0
  8  9  2  0  0  0
  8 10  1  0  0  0
 10 26  1  0  0  0
 11 12  2  0  0  0
 11 13  1  0  0  0
 13 14  1  0  0  0
 14 15  1  0  0  0
 14 16  1  0  0  0
 14 49  1  0  0  0
 15 50  1  0  0  0
 15 51  1  0  0  0
 15 52  1  0  0  0
 16 17  1  0  0  0
 17 18  2  0  0  0
 17 19  1  0  0  0
 19 20  1  0  0  0
 20 25  1  0  0  0
 20 21  1  0  0  0
 20 53  1  0  0  0
 21 22  1  0  0  0
 21 54  1  0  0  0
 21 55  1  0  0  0
 22 23  1  0  0  0
 22 56  1  0  0  0
 22 57  1  0  0  0
 23 24  1  0  0  0
 23 58  1  0  0  0
 23 59  1  0  0  0
 24 25  1  0  0  0
 24 60  1  0  0  0
 24 61  1  0  0  0
 25 62  1  0  0  0
 25 63  1  0  0  0
 26 27  1  0  0  0
 26 64  1  0  0  0
 26 65  1  0  0  0
 27 66  1  0  0  0
 27 67  1  0  0  0
 27 68  1  0  0  0
 28 29  1  0  0  0
 28 69  1  0  0  0
 28 70  1  0  0  0
 29 34  2  0  0  0
 29 30  1  0  0  0
 30 31  2  0  0  0
 30 71  1  0  0  0
 31 32  1  0  0  0
 31 72  1  0  0  0
 32 33  2  0  0  0
 32 35  1  0  0  0
 33 34  1  0  0  0
 33 73  1  0  0  0
 34 74  1  0  0  0
 35 40  2  0  0  0
 35 36  1  0  0  0
 36 37  2  0  0  0
 36 75  1  0  0  0
 37 38  1  0  0  0
 37 76  1  0  0  0
 38 39  2  0  0  0
 38 77  1  0  0  0
 39 40  1  0  0  0
 39 78  1  0  0  0
 40 41  1  0  0  0
 41 45  1  0  0  0
 41 42  2  0  0  0
 42 43  1  0  0  0
 43 44  2  0  0  0
 44 45  1  0  0  0
M  CHG  1  45  -1
M  END
> <s_m_entry_id>
145

> <s_m_entry_name>
entry

> <i_lp_mmshare_version>
47013

> <i_f3d_flags>
0

> <s_epik_input>
W0NIMl0xW0NIMl1bQ0gyXVtDSDJdW0NIMl1bQ0hdMU9DKD1PKU9bQ0BIXShbQ0gzXSlPQyg9TyljKFtjSF1bY0hdW2NIXTIpYyhjMjMpbihjKG4zKU9bQ0gyXVtDSDNdKVtDSDJdYzRbY0hdW2NIXWMoW2NIXVtjSF00KS1jNVtjSF1bY0hdW2NIXVtjSF1jNS1jNm5ubltuSF02

> <s_epik_cmdline>
J2VwaWtfcHl0aG9uJywgJy1waCcsICc3LjQnLCAnLXRuJywgJzgnLCAnLW1hJywgJzIwMCcsICctaW1hZScsICc8aW5maWxlLm1hZT4nLCAnLW9tYWUnLCAnPG91dGZpbGUubWFlPic=

> <r_epik_Ionization_Penalty>
  0.0726

> <r_epik_Ionization_Penalty_Charging>
  0.0004

> <r_epik_Ionization_Penalty_Neutral>
  0.0722

> <r_epik_State_Penalty>
  0.0634

> <r_epik_Charging_Adjusted_Penalty>
0.0637974485975006

> <i_epik_Tot_Q>
-1

> <i_epik_Tot_abs_Q>
1

> <s_lp_Force_Field>
OPLS3e

> <r_lp_Energy>
58.117472

> <b_lp_Chiralities_Consistent>
1

> <s_lp_Variant>
307R-1

> <s_m_job_name>
ligprep_21

> <s_m_Source_Path>
/home/andre/Documents/projects/Esterase/data/FINAL_STUFF/Compounds/MAE_external

> <s_m_Source_File>
145.mae

> <i_m_Source_File_Index>
1

> <s_epik_Chemistry_Notes>
This compound has an ester and may undergo hydrolysis at high or low pH. This compound contains an acetal/aminal-like group ( X-CH(R)-Y where X, Y are N, S, or O) that may be acid/base labile, releasing an aldehyde. This is carbonic acid which has a microscopic pka value of about 3.8 however its equilibrium with CO2 as a lewis acid yields a pKa of about 6.35.

$$$$
