147
                    3D
 Schrodinger Suite 2021-1.
 61 62  0  0  1  0            999 V2000
    0.1338   -0.0049    0.0828 O   0  0  0  0  0  0
    1.5612   -0.0371    0.1411 C   0  0  2  0  0  0
    2.0040   -1.5022   -0.0425 C   0  0  0  0  0  0
    1.6175   -1.9395   -1.3426 O   0  0  0  0  0  0
    1.8666   -3.2436   -1.7345 C   0  0  0  0  0  0
    1.4253   -3.6424   -3.0324 C   0  0  0  0  0  0
    0.7497   -2.7481   -3.9085 C   0  0  0  0  0  0
    0.3287   -3.1669   -5.1673 C   0  0  0  0  0  0
    0.5611   -4.4691   -5.5930 C   0  0  0  0  0  0
    1.2195   -5.3747   -4.7670 C   0  0  0  0  0  0
    1.6614   -4.9815   -3.4787 C   0  0  0  0  0  0
    2.3308   -5.8876   -2.6241 C   0  0  0  0  0  0
    2.7528   -5.4816   -1.3646 C   0  0  0  0  0  0
    2.5257   -4.1831   -0.9262 C   0  0  0  0  0  0
    2.0572    0.5768    1.4712 C   0  0  0  0  0  0
    3.5849    0.7591    1.4217 N   0  3  0  0  0  0
    4.2454    1.2371    2.7287 C   0  0  0  0  0  0
    3.8323    2.6891    3.0339 C   0  0  0  0  0  0
    5.7651    1.0706    2.5744 C   0  0  0  0  0  0
   -0.5476    1.1301   -0.2071 C   0  0  0  0  0  0
   -2.0629    0.9202   -0.2243 C   0  0  0  0  0  0
   -0.0522    2.2338   -0.4409 O   0  0  0  0  0  0
   -2.6385    0.5161    1.1475 C   0  0  0  0  0  0
   -4.1664    0.3429    1.1112 C   0  0  0  0  0  0
   -4.7582   -0.0787    2.4681 C   0  0  0  0  0  0
   -6.2877   -0.2437    2.4278 C   0  0  0  0  0  0
   -6.8790   -0.6832    3.7740 C   0  0  0  0  0  0
    1.9659    0.5436   -0.6907 H   0  0  0  0  0  0
    3.0876   -1.5835    0.0570 H   0  0  0  0  0  0
    1.5476   -2.1291    0.7264 H   0  0  0  0  0  0
    0.5579   -1.7317   -3.5963 H   0  0  0  0  0  0
   -0.1835   -2.4743   -5.8190 H   0  0  0  0  0  0
    0.2277   -4.7799   -6.5721 H   0  0  0  0  0  0
    1.3960   -6.3852   -5.1064 H   0  0  0  0  0  0
    2.5126   -6.9002   -2.9551 H   0  0  0  0  0  0
    3.2625   -6.1824   -0.7197 H   0  0  0  0  0  0
    2.8758   -3.9217    0.0604 H   0  0  0  0  0  0
    1.6589    1.5774    1.6379 H   0  0  0  0  0  0
    1.8464   -0.0574    2.3338 H   0  0  0  0  0  0
    3.9908   -0.1352    1.1845 H   0  0  0  0  0  0
    3.8735    0.5516    3.4924 H   0  0  0  0  0  0
    4.3328    3.0527    3.9320 H   0  0  0  0  0  0
    2.7612    2.7818    3.2132 H   0  0  0  0  0  0
    4.0959    3.3626    2.2172 H   0  0  0  0  0  0
    6.2840    1.3555    3.4904 H   0  0  0  0  0  0
    6.1590    1.6904    1.7675 H   0  0  0  0  0  0
    6.0336    0.0351    2.3601 H   0  0  0  0  0  0
   -2.5392    1.8412   -0.5628 H   0  0  0  0  0  0
   -2.3021    0.1637   -0.9724 H   0  0  0  0  0  0
   -2.1806   -0.4168    1.4817 H   0  0  0  0  0  0
   -2.3783    1.2691    1.8935 H   0  0  0  0  0  0
   -4.6281    1.2779    0.7895 H   0  0  0  0  0  0
   -4.4269   -0.4019    0.3576 H   0  0  0  0  0  0
   -4.3013   -1.0172    2.7859 H   0  0  0  0  0  0
   -4.4945    0.6617    3.2251 H   0  0  0  0  0  0
   -6.7494    0.6973    2.1251 H   0  0  0  0  0  0
   -6.5582   -0.9753    1.6651 H   0  0  0  0  0  0
   -7.9637   -0.7750    3.7100 H   0  0  0  0  0  0
   -6.6536    0.0377    4.5608 H   0  0  0  0  0  0
   -6.4833   -1.6514    4.0829 H   0  0  0  0  0  0
    3.8186    1.4056    0.6811 H   0  0  0  0  0  0
  1  2  1  0  0  0
  1 20  1  0  0  0
  2  3  1  0  0  0
  2 15  1  0  0  0
  2 28  1  0  0  0
  3  4  1  0  0  0
  3 29  1  0  0  0
  3 30  1  0  0  0
  4  5  1  0  0  0
  5  6  2  0  0  0
  5 14  1  0  0  0
  6  7  1  0  0  0
  6 11  1  0  0  0
  7  8  2  0  0  0
  7 31  1  0  0  0
  8  9  1  0  0  0
  8 32  1  0  0  0
  9 10  2  0  0  0
  9 33  1  0  0  0
 10 11  1  0  0  0
 10 34  1  0  0  0
 11 12  2  0  0  0
 12 13  1  0  0  0
 12 35  1  0  0  0
 13 14  2  0  0  0
 13 36  1  0  0  0
 14 37  1  0  0  0
 15 16  1  0  0  0
 15 38  1  0  0  0
 15 39  1  0  0  0
 16 17  1  0  0  0
 16 40  1  0  0  0
 16 61  1  0  0  0
 17 18  1  0  0  0
 17 19  1  0  0  0
 17 41  1  0  0  0
 18 42  1  0  0  0
 18 43  1  0  0  0
 18 44  1  0  0  0
 19 45  1  0  0  0
 19 46  1  0  0  0
 19 47  1  0  0  0
 20 21  1  0  0  0
 20 22  2  0  0  0
 21 23  1  0  0  0
 21 48  1  0  0  0
 21 49  1  0  0  0
 23 24  1  0  0  0
 23 50  1  0  0  0
 23 51  1  0  0  0
 24 25  1  0  0  0
 24 52  1  0  0  0
 24 53  1  0  0  0
 25 26  1  0  0  0
 25 54  1  0  0  0
 25 55  1  0  0  0
 26 27  1  0  0  0
 26 56  1  0  0  0
 26 57  1  0  0  0
 27 58  1  0  0  0
 27 59  1  0  0  0
 27 60  1  0  0  0
M  CHG  1  16   1
M  END
> <s_m_entry_id>
147

> <s_m_entry_name>
entry

> <i_lp_mmshare_version>
47013

> <i_f3d_flags>
0

> <s_epik_input>
W0NIM11bQ0gyXVtDSDJdW0NIMl1bQ0gyXVtDSDJdQyg9TylPW0NAQEhdKFtDSDJdW05IXVtDSF0oW0NIM10pW0NIM10pW0NIMl1PYzFbY0hdW2NIXVtjSF1jKGMxMilbY0hdW2NIXVtjSF1bY0hdMg==

> <s_epik_cmdline>
J2VwaWtfcHl0aG9uJywgJy1waCcsICc3LjQnLCAnLXRuJywgJzgnLCAnLW1hJywgJzIwMCcsICctaW1hZScsICc8aW5maWxlLm1hZT4nLCAnLW9tYWUnLCAnPG91dGZpbGUubWFlPic=

> <r_epik_Ionization_Penalty>
  0.0218

> <r_epik_Ionization_Penalty_Charging>
  0.0218

> <r_epik_Ionization_Penalty_Neutral>
  0.0000

> <r_epik_State_Penalty>
  0.0175

> <r_epik_Charging_Adjusted_Penalty>
0.0393322994553355

> <i_epik_Tot_Q>
1

> <i_epik_Tot_abs_Q>
1

> <s_lp_Force_Field>
OPLS3e

> <r_lp_Energy>
30.353316

> <b_lp_Chiralities_Consistent>
1

> <s_lp_Variant>
309-1

> <s_m_job_name>
ligprep_23

> <s_m_Source_Path>
/home/andre/Documents/projects/Esterase/data/FINAL_STUFF/Compounds/MAE_external

> <s_m_Source_File>
147.mae

> <i_m_Source_File_Index>
1

> <s_epik_Chemistry_Notes>
This compound has an ester and may undergo hydrolysis at high or low pH.

$$$$
