151
                    3D
 Schrodinger Suite 2021-1.
 54 56  0  0  1  0            999 V2000
   -0.6591    0.9500    2.2701 C   0  0  0  0  0  0
   -0.8416    1.6536    0.9297 C   0  0  0  0  0  0
   -0.3650    1.2184   -0.3000 C   0  0  0  0  0  0
   -0.8776    2.1179   -1.2836 C   0  0  0  0  0  0
   -1.6387    3.1071   -0.6019 C   0  0  0  0  0  0
   -1.5623    2.8410    0.7645 N   0  0  0  0  0  0
   -2.1816    3.5943    1.8201 C   0  0  0  0  0  0
   -3.2724    4.1375    1.6352 O   0  0  0  0  0  0
   -1.4536    3.7998    3.1262 C   0  0  0  0  0  0
   -2.1717    3.8252    4.3280 C   0  0  0  0  0  0
   -1.5097    4.0313    5.5354 C   0  0  0  0  0  0
   -0.1300    4.2252    5.5440 C   0  0  0  0  0  0
    0.5922    4.2204    4.3527 C   0  0  0  0  0  0
   -0.0686    4.0143    3.1449 C   0  0  0  0  0  0
    0.6899    4.4794    7.0414 Cl  0  0  0  0  0  0
   -2.2813    4.1393   -1.3042 C   0  0  0  0  0  0
   -2.1492    4.1582   -2.6909 C   0  0  0  0  0  0
   -1.4086    3.2079   -3.3876 C   0  0  0  0  0  0
   -0.7664    2.1802   -2.6826 C   0  0  0  0  0  0
   -1.3606    3.3553   -4.7606 O   0  0  0  0  0  0
   -0.6115    2.4252   -5.5354 C   0  0  0  0  0  0
    0.4998   -0.0001   -0.5770 C   0  0  0  0  0  0
    1.9194    0.1393   -0.0186 C   0  0  0  0  0  0
    2.5817    1.1666   -0.1810 O   0  0  0  0  0  0
    2.3176   -0.9667    0.6515 O   0  0  0  0  0  0
    3.5819   -1.0359    1.3136 C   0  0  2  0  0  0
    3.9333   -2.5204    1.5297 C   0  0  0  0  0  0
    3.0083   -3.1278    2.4246 O   0  0  0  0  0  0
    3.2802   -4.4981    2.6747 C   0  0  0  0  0  0
    3.5753   -0.2310    2.6317 C   0  0  0  0  0  0
   -0.4547   -0.1126    2.1389 H   0  0  0  0  0  0
   -1.5460    1.0040    2.9014 H   0  0  0  0  0  0
    0.1811    1.3501    2.8359 H   0  0  0  0  0  0
   -3.2428    3.6784    4.3352 H   0  0  0  0  0  0
   -2.0676    4.0415    6.4604 H   0  0  0  0  0  0
    1.6609    4.3776    4.3614 H   0  0  0  0  0  0
    0.5041    4.0198    2.2281 H   0  0  0  0  0  0
   -2.8564    4.9047   -0.8047 H   0  0  0  0  0  0
   -2.6382    4.9470   -3.2441 H   0  0  0  0  0  0
   -0.1864    1.4313   -3.1991 H   0  0  0  0  0  0
   -0.6825    2.6950   -6.5890 H   0  0  0  0  0  0
   -0.9989    1.4111   -5.4280 H   0  0  0  0  0  0
    0.4448    2.4365   -5.2625 H   0  0  0  0  0  0
    0.0363   -0.8951   -0.1602 H   0  0  0  0  0  0
    0.5831   -0.1836   -1.6479 H   0  0  0  0  0  0
    4.3454   -0.6178    0.6542 H   0  0  0  0  0  0
    3.9288   -3.0419    0.5701 H   0  0  0  0  0  0
    4.9467   -2.5982    1.9279 H   0  0  0  0  0  0
    2.5310   -4.8985    3.3575 H   0  0  0  0  0  0
    4.2593   -4.6312    3.1376 H   0  0  0  0  0  0
    3.2432   -5.0864    1.7566 H   0  0  0  0  0  0
    4.5271   -0.3282    3.1548 H   0  0  0  0  0  0
    2.7885   -0.5731    3.3053 H   0  0  0  0  0  0
    3.4142    0.8318    2.4502 H   0  0  0  0  0  0
  1  2  1  0  0  0
  1 31  1  0  0  0
  1 32  1  0  0  0
  1 33  1  0  0  0
  2  6  1  0  0  0
  2  3  2  0  0  0
  3  4  1  0  0  0
  3 22  1  0  0  0
  4 19  1  0  0  0
  4  5  2  0  0  0
  5  6  1  0  0  0
  5 16  1  0  0  0
  6  7  1  0  0  0
  7  8  2  0  0  0
  7  9  1  0  0  0
  9 14  1  0  0  0
  9 10  2  0  0  0
 10 11  1  0  0  0
 10 34  1  0  0  0
 11 12  2  0  0  0
 11 35  1  0  0  0
 12 13  1  0  0  0
 12 15  1  0  0  0
 13 14  2  0  0  0
 13 36  1  0  0  0
 14 37  1  0  0  0
 16 17  2  0  0  0
 16 38  1  0  0  0
 17 18  1  0  0  0
 17 39  1  0  0  0
 18 19  2  0  0  0
 18 20  1  0  0  0
 19 40  1  0  0  0
 20 21  1  0  0  0
 21 41  1  0  0  0
 21 42  1  0  0  0
 21 43  1  0  0  0
 22 23  1  0  0  0
 22 44  1  0  0  0
 22 45  1  0  0  0
 23 24  2  0  0  0
 23 25  1  0  0  0
 25 26  1  0  0  0
 26 27  1  0  0  0
 26 30  1  0  0  0
 26 46  1  0  0  0
 27 28  1  0  0  0
 27 47  1  0  0  0
 27 48  1  0  0  0
 28 29  1  0  0  0
 29 49  1  0  0  0
 29 50  1  0  0  0
 29 51  1  0  0  0
 30 52  1  0  0  0
 30 53  1  0  0  0
 30 54  1  0  0  0
M  END
> <s_m_entry_id>
151

> <s_m_entry_name>
entry

> <i_lp_mmshare_version>
47013

> <i_f3d_flags>
0

> <s_epik_input>
W0NIM11PW0NIMl1bQ0BASF0oW0NIM10pT0MoPU8pW0NIMl1jMWMoW0NIM10pbihjKGMxMilbY0hdW2NIXWMoW2NIXTIpT1tDSDNdKUMoPU8pYzNbY0hdW2NIXWMoQ2wpW2NIXVtjSF0z

> <s_epik_cmdline>
J2VwaWtfcHl0aG9uJywgJy1waCcsICc3LjQnLCAnLXRuJywgJzgnLCAnLW1hJywgJzIwMCcsICctaW1hZScsICc8aW5maWxlLm1hZT4nLCAnLW9tYWUnLCAnPG91dGZpbGUubWFlPic=

> <r_epik_Ionization_Penalty>
  0.0000

> <r_epik_Ionization_Penalty_Charging>
  0.0000

> <r_epik_Ionization_Penalty_Neutral>
  0.0000

> <r_epik_State_Penalty>
  0.0000

> <r_epik_Charging_Adjusted_Penalty>
0

> <i_epik_Tot_Q>
0

> <i_epik_Tot_abs_Q>
0

> <s_lp_Force_Field>
OPLS3e

> <r_lp_Energy>
43.994563

> <b_lp_Chiralities_Consistent>
1

> <s_lp_Variant>
313-1

> <s_m_job_name>
ligprep_27

> <s_m_Source_Path>
/home/andre/Documents/projects/Esterase/data/FINAL_STUFF/Compounds/MAE_external

> <s_m_Source_File>
151.mae

> <i_m_Source_File_Index>
1

> <r_lp_tautomer_probability>
1

> <s_epik_Chemistry_Notes>
This compound has an ester and may undergo hydrolysis at high or low pH.

$$$$
