152
                    3D
 Schrodinger Suite 2021-1.
 39 41  0  0  1  0            999 V2000
   -0.7867    1.6159    0.0110 S   0  0  0  0  0  0
    0.0373    0.0217   -0.0476 C   0  0  0  0  0  0
   -0.6940   -1.0185   -0.0678 N   0  0  0  0  0  0
   -2.1081   -0.7221   -0.0416 C   0  0  2  0  0  0
   -2.3831    0.7901    0.0622 C   0  0  0  0  0  0
   -2.6905   -1.5389    1.1302 C   0  0  0  0  0  0
   -3.4190   -2.5110    0.9213 O   0  0  0  0  0  0
   -2.3245   -1.0721    2.3496 O   0  0  0  0  0  0
    3.8567   -0.7493   -0.0499 C   0  0  0  0  0  0
    2.3235   -1.6055   -0.0674 S   0  0  0  0  0  0
    1.5029   -0.0484   -0.0595 C   0  0  0  0  0  0
    2.2904    0.9955   -0.0513 N   0  0  0  0  0  0
    3.6039    0.6457   -0.0447 C   0  0  0  0  0  0
    4.6753    1.5501   -0.0307 C   0  0  0  0  0  0
    5.9744    1.0398   -0.0183 C   0  0  0  0  0  0
    6.2254   -0.3408   -0.0202 C   0  0  0  0  0  0
    5.1647   -1.2516   -0.0390 C   0  0  0  0  0  0
    7.5365   -0.8512   -0.0007 N   0  0  0  0  0  0
    8.2534   -0.5498    1.2343 C   0  0  0  0  0  0
    8.2835   -0.5674   -1.2216 C   0  0  0  0  0  0
   -2.7588   -1.7201    3.5366 C   0  0  0  0  0  0
   -2.1362   -1.0203    4.7485 C   0  0  0  0  0  0
   -2.5424   -1.1111   -0.9638 H   0  0  0  0  0  0
   -2.8972    1.0991    0.9741 H   0  0  0  0  0  0
   -2.9740    1.1420   -0.7838 H   0  0  0  0  0  0
    4.5062    2.6170   -0.0265 H   0  0  0  0  0  0
    6.8013    1.7353   -0.0056 H   0  0  0  0  0  0
    5.3476   -2.3165   -0.0417 H   0  0  0  0  0  0
    7.6651   -0.8490    2.1032 H   0  0  0  0  0  0
    8.4616    0.5173    1.3258 H   0  0  0  0  0  0
    9.1979   -1.0937    1.2738 H   0  0  0  0  0  0
    7.7184   -0.8820   -2.1004 H   0  0  0  0  0  0
    9.2301   -1.1089   -1.2279 H   0  0  0  0  0  0
    8.4910    0.4988   -1.3243 H   0  0  0  0  0  0
   -3.8475   -1.6861    3.6025 H   0  0  0  0  0  0
   -2.4614   -2.7701    3.5213 H   0  0  0  0  0  0
   -2.4506   -1.4993    5.6758 H   0  0  0  0  0  0
   -2.4355    0.0271    4.7966 H   0  0  0  0  0  0
   -1.0470   -1.0568    4.7080 H   0  0  0  0  0  0
  1  2  1  0  0  0
  1  5  1  0  0  0
  2  3  2  0  0  0
  2 11  1  0  0  0
  3  4  1  0  0  0
  4  5  1  0  0  0
  4  6  1  0  0  0
  4 23  1  0  0  0
  5 24  1  0  0  0
  5 25  1  0  0  0
  6  7  2  0  0  0
  6  8  1  0  0  0
  8 21  1  0  0  0
  9 10  1  0  0  0
  9 13  2  0  0  0
  9 17  1  0  0  0
 10 11  1  0  0  0
 11 12  2  0  0  0
 12 13  1  0  0  0
 13 14  1  0  0  0
 14 15  2  0  0  0
 14 26  1  0  0  0
 15 16  1  0  0  0
 15 27  1  0  0  0
 16 17  2  0  0  0
 16 18  1  0  0  0
 17 28  1  0  0  0
 18 19  1  0  0  0
 18 20  1  0  0  0
 19 29  1  0  0  0
 19 30  1  0  0  0
 19 31  1  0  0  0
 20 32  1  0  0  0
 20 33  1  0  0  0
 20 34  1  0  0  0
 21 22  1  0  0  0
 21 35  1  0  0  0
 21 36  1  0  0  0
 22 37  1  0  0  0
 22 38  1  0  0  0
 22 39  1  0  0  0
M  END
> <s_m_entry_id>
152

> <s_m_entry_name>
entry

> <i_lp_mmshare_version>
47013

> <i_f3d_flags>
0

> <s_epik_input>
W0NIM11bQ0gyXU9DKD1PKVtDQEhdKFtDSDJdUzEpTj1DMWMoczIpbmMoYzIzKVtjSF1bY0hdYyhbY0hdMylOKFtDSDNdKVtDSDNd

> <s_epik_cmdline>
J2VwaWtfcHl0aG9uJywgJy1waCcsICc3LjQnLCAnLXRuJywgJzgnLCAnLW1hJywgJzIwMCcsICctaW1hZScsICc8aW5maWxlLm1hZT4nLCAnLW9tYWUnLCAnPG91dGZpbGUubWFlPic=

> <r_epik_Ionization_Penalty>
  0.0000

> <r_epik_Ionization_Penalty_Charging>
  0.0000

> <r_epik_Ionization_Penalty_Neutral>
  0.0000

> <r_epik_State_Penalty>
  0.0000

> <r_epik_Charging_Adjusted_Penalty>
0

> <i_epik_Tot_Q>
0

> <i_epik_Tot_abs_Q>
0

> <s_lp_Force_Field>
OPLS3e

> <r_lp_Energy>
28.861548

> <b_lp_Chiralities_Consistent>
1

> <s_lp_Variant>
314-2

> <s_m_job_name>
ligprep_28

> <s_m_Source_Path>
/home/andre/Documents/projects/Esterase/data/FINAL_STUFF/Compounds/MAE_external

> <s_m_Source_File>
152.mae

> <i_m_Source_File_Index>
1

> <r_lp_tautomer_probability>
1

> <s_epik_Chemistry_Notes>
This compound has an ester and may undergo hydrolysis at high or low pH. This compound has an imine and may undergo hydrolysis.

$$$$
