153
                    3D
 Schrodinger Suite 2021-1.
 45 47  0  0  1  0            999 V2000
   -2.7074   -0.0015    2.5505 S   0  0  0  0  0  0
   -1.7110    1.1543    1.6056 C   0  0  0  0  0  0
   -0.6742    0.7001    1.0258 N   0  0  0  0  0  0
   -0.4829   -0.7179    1.2240 C   0  0  2  0  0  0
   -1.5266   -1.3087    2.1920 C   0  0  0  0  0  0
    0.9717   -0.8750    1.7115 C   0  0  0  0  0  0
    1.2868   -0.7303    2.8963 O   0  0  0  0  0  0
    1.8119   -1.2116    0.7090 O   0  0  0  0  0  0
   -2.2849    4.9684    1.0439 C   0  0  0  0  0  0
   -1.1547    3.7070    0.5771 S   0  0  0  0  0  0
   -2.1030    2.5664    1.5244 C   0  0  0  0  0  0
   -3.1474    3.0764    2.1234 N   0  0  0  0  0  0
   -3.2781    4.4071    1.8793 C   0  0  0  0  0  0
   -4.2980    5.2196    2.3859 C   0  0  0  0  0  0
   -4.3013    6.5727    2.0448 C   0  0  0  0  0  0
   -3.3221    7.1525    1.2154 C   0  0  0  0  0  0
   -2.2991    6.3283    0.7078 C   0  0  0  0  0  0
   -3.3721    8.5381    0.8883 N   0  0  0  0  0  0
   -2.3010    9.1539    0.1042 C   0  0  0  0  0  0
   -4.2185    9.4442    1.6657 C   0  0  0  0  0  0
    3.1959   -1.4157    0.9621 C   0  0  0  0  0  0
    3.9184   -1.7268   -0.3564 C   0  0  0  0  0  0
    5.4237   -1.9723   -0.1591 C   0  0  0  0  0  0
    6.1582   -2.2718   -1.4726 C   0  0  0  0  0  0
   -0.5730   -1.2018    0.2500 H   0  0  0  0  0  0
   -1.1223   -1.6624    3.1419 H   0  0  0  0  0  0
   -2.0648   -2.1387    1.7336 H   0  0  0  0  0  0
   -5.0686    4.8143    3.0252 H   0  0  0  0  0  0
   -5.1051    7.1672    2.4505 H   0  0  0  0  0  0
   -1.5205    6.7157    0.0695 H   0  0  0  0  0  0
   -2.1235    8.6045   -0.8207 H   0  0  0  0  0  0
   -1.3707    9.1552    0.6734 H   0  0  0  0  0  0
   -2.5342   10.1850   -0.1648 H   0  0  0  0  0  0
   -5.2654    9.1437    1.6208 H   0  0  0  0  0  0
   -4.1526   10.4734    1.3110 H   0  0  0  0  0  0
   -3.9146    9.4345    2.7132 H   0  0  0  0  0  0
    3.6252   -0.5232    1.4206 H   0  0  0  0  0  0
    3.3232   -2.2415    1.6640 H   0  0  0  0  0  0
    3.4651   -2.6040   -0.8204 H   0  0  0  0  0  0
    3.7729   -0.8984   -1.0516 H   0  0  0  0  0  0
    5.8788   -1.1006    0.3133 H   0  0  0  0  0  0
    5.5717   -2.8047    0.5301 H   0  0  0  0  0  0
    7.2197   -2.4445   -1.2939 H   0  0  0  0  0  0
    6.0716   -1.4403   -2.1727 H   0  0  0  0  0  0
    5.7556   -3.1614   -1.9577 H   0  0  0  0  0  0
  1  2  1  0  0  0
  1  5  1  0  0  0
  2  3  2  0  0  0
  2 11  1  0  0  0
  3  4  1  0  0  0
  4  5  1  0  0  0
  4  6  1  0  0  0
  4 25  1  0  0  0
  5 26  1  0  0  0
  5 27  1  0  0  0
  6  7  2  0  0  0
  6  8  1  0  0  0
  8 21  1  0  0  0
  9 10  1  0  0  0
  9 13  2  0  0  0
  9 17  1  0  0  0
 10 11  1  0  0  0
 11 12  2  0  0  0
 12 13  1  0  0  0
 13 14  1  0  0  0
 14 15  2  0  0  0
 14 28  1  0  0  0
 15 16  1  0  0  0
 15 29  1  0  0  0
 16 17  2  0  0  0
 16 18  1  0  0  0
 17 30  1  0  0  0
 18 19  1  0  0  0
 18 20  1  0  0  0
 19 31  1  0  0  0
 19 32  1  0  0  0
 19 33  1  0  0  0
 20 34  1  0  0  0
 20 35  1  0  0  0
 20 36  1  0  0  0
 21 22  1  0  0  0
 21 37  1  0  0  0
 21 38  1  0  0  0
 22 23  1  0  0  0
 22 39  1  0  0  0
 22 40  1  0  0  0
 23 24  1  0  0  0
 23 41  1  0  0  0
 23 42  1  0  0  0
 24 43  1  0  0  0
 24 44  1  0  0  0
 24 45  1  0  0  0
M  END
> <s_m_entry_id>
153

> <s_m_entry_name>
entry

> <i_lp_mmshare_version>
47013

> <i_f3d_flags>
0

> <s_epik_input>
W0NIM11bQ0gyXVtDSDJdW0NIMl1PQyg9TylbQ0BIXShbQ0gyXVMxKU49QzFjKHMyKW5jKGMyMylbY0hdW2NIXWMoW2NIXTMpTihbQ0gzXSlbQ0gzXQ==

> <s_epik_cmdline>
J2VwaWtfcHl0aG9uJywgJy1waCcsICc3LjQnLCAnLXRuJywgJzgnLCAnLW1hJywgJzIwMCcsICctaW1hZScsICc8aW5maWxlLm1hZT4nLCAnLW9tYWUnLCAnPG91dGZpbGUubWFlPic=

> <r_epik_Ionization_Penalty>
  0.0000

> <r_epik_Ionization_Penalty_Charging>
  0.0000

> <r_epik_Ionization_Penalty_Neutral>
  0.0000

> <r_epik_State_Penalty>
  0.0000

> <r_epik_Charging_Adjusted_Penalty>
0

> <i_epik_Tot_Q>
0

> <i_epik_Tot_abs_Q>
0

> <s_lp_Force_Field>
OPLS3e

> <r_lp_Energy>
24.529665

> <b_lp_Chiralities_Consistent>
1

> <s_lp_Variant>
315-2

> <s_m_job_name>
ligprep_29

> <s_m_Source_Path>
/home/andre/Documents/projects/Esterase/data/FINAL_STUFF/Compounds/MAE_external

> <s_m_Source_File>
153.mae

> <i_m_Source_File_Index>
1

> <r_lp_tautomer_probability>
1

> <s_epik_Chemistry_Notes>
This compound has an ester and may undergo hydrolysis at high or low pH. This compound has an imine and may undergo hydrolysis.

$$$$
