154
                    3D
 Schrodinger Suite 2021-1.
 46 49  0  0  1  0            999 V2000
   -0.7923    1.6159    0.0510 S   0  0  0  0  0  0
    0.0297    0.0228   -0.0480 C   0  0  0  0  0  0
   -0.7032   -1.0158   -0.0991 N   0  0  0  0  0  0
   -2.1178   -0.7189   -0.0709 C   0  0  2  0  0  0
   -2.3910    0.7931    0.0433 C   0  0  0  0  0  0
   -2.6996   -1.5383    1.0995 C   0  0  0  0  0  0
   -3.4361   -2.5048    0.8932 O   0  0  0  0  0  0
   -2.3223   -1.0760    2.3148 O   0  0  0  0  0  0
    3.8499   -0.7485   -0.0446 C   0  0  0  0  0  0
    2.3167   -1.6047   -0.0712 S   0  0  0  0  0  0
    1.4956   -0.0477   -0.0544 C   0  0  0  0  0  0
    2.2833    0.9959   -0.0354 N   0  0  0  0  0  0
    3.5969    0.6466   -0.0289 C   0  0  0  0  0  0
    4.6684    1.5509   -0.0067 C   0  0  0  0  0  0
    5.9676    1.0404    0.0023 C   0  0  0  0  0  0
    6.2190   -0.3401   -0.0101 C   0  0  0  0  0  0
    5.1581   -1.2507   -0.0360 C   0  0  0  0  0  0
    7.5303   -0.8506    0.0050 N   0  0  0  0  0  0
    8.2541   -0.5498    1.2360 C   0  0  0  0  0  0
    8.2724   -0.5668   -1.2188 C   0  0  0  0  0  0
   -2.7552   -1.7125    3.5115 C   0  0  0  0  0  0
   -2.1056   -1.0813    4.7385 C   0  0  0  0  0  0
   -1.9531   -1.8569    5.8907 C   0  0  0  0  0  0
   -1.3674   -1.3095    7.0293 C   0  0  0  0  0  0
   -0.9383    0.0157    7.0155 C   0  0  0  0  0  0
   -1.0917    0.7993    5.8743 C   0  0  0  0  0  0
   -1.6771    0.2524    4.7357 C   0  0  0  0  0  0
   -2.5551   -1.1027   -0.9936 H   0  0  0  0  0  0
   -2.9330    1.0918    0.9423 H   0  0  0  0  0  0
   -2.9539    1.1580   -0.8162 H   0  0  0  0  0  0
    4.4994    2.6178    0.0055 H   0  0  0  0  0  0
    6.7943    1.7360    0.0209 H   0  0  0  0  0  0
    5.3412   -2.3157   -0.0454 H   0  0  0  0  0  0
    7.6708   -0.8491    2.1081 H   0  0  0  0  0  0
    8.4633    0.5170    1.3266 H   0  0  0  0  0  0
    9.1987   -1.0939    1.2695 H   0  0  0  0  0  0
    7.7047   -0.8818   -2.0957 H   0  0  0  0  0  0
    9.2197   -1.1072   -1.2287 H   0  0  0  0  0  0
    8.4790    0.4993   -1.3224 H   0  0  0  0  0  0
   -3.8398   -1.6400    3.6044 H   0  0  0  0  0  0
   -2.4911   -2.7711    3.4720 H   0  0  0  0  0  0
   -2.2850   -2.8851    5.9055 H   0  0  0  0  0  0
   -1.2468   -1.9095    7.9193 H   0  0  0  0  0  0
   -0.4834    0.4402    7.8986 H   0  0  0  0  0  0
   -0.7591    1.8269    5.8725 H   0  0  0  0  0  0
   -1.7941    0.8703    3.8571 H   0  0  0  0  0  0
  1  2  1  0  0  0
  1  5  1  0  0  0
  2  3  2  0  0  0
  2 11  1  0  0  0
  3  4  1  0  0  0
  4  5  1  0  0  0
  4  6  1  0  0  0
  4 28  1  0  0  0
  5 29  1  0  0  0
  5 30  1  0  0  0
  6  7  2  0  0  0
  6  8  1  0  0  0
  8 21  1  0  0  0
  9 10  1  0  0  0
  9 13  2  0  0  0
  9 17  1  0  0  0
 10 11  1  0  0  0
 11 12  2  0  0  0
 12 13  1  0  0  0
 13 14  1  0  0  0
 14 15  2  0  0  0
 14 31  1  0  0  0
 15 16  1  0  0  0
 15 32  1  0  0  0
 16 17  2  0  0  0
 16 18  1  0  0  0
 17 33  1  0  0  0
 18 19  1  0  0  0
 18 20  1  0  0  0
 19 34  1  0  0  0
 19 35  1  0  0  0
 19 36  1  0  0  0
 20 37  1  0  0  0
 20 38  1  0  0  0
 20 39  1  0  0  0
 21 22  1  0  0  0
 21 40  1  0  0  0
 21 41  1  0  0  0
 22 23  2  0  0  0
 22 27  1  0  0  0
 23 24  1  0  0  0
 23 42  1  0  0  0
 24 25  2  0  0  0
 24 43  1  0  0  0
 25 26  1  0  0  0
 25 44  1  0  0  0
 26 27  2  0  0  0
 26 45  1  0  0  0
 27 46  1  0  0  0
M  END
> <s_m_entry_id>
154

> <s_m_entry_name>
entry

> <i_lp_mmshare_version>
47013

> <i_f3d_flags>
0

> <s_epik_input>
W2NIXTFbY0hdW2NIXVtjSF1bY0hdYzFbQ0gyXU9DKD1PKVtDQEBIXShbQ0gyXVMyKU49QzJjKHMzKW5jKGMzNClbY0hdW2NIXWMoW2NIXTQpTihbQ0gzXSlbQ0gzXQ==

> <s_epik_cmdline>
J2VwaWtfcHl0aG9uJywgJy1waCcsICc3LjQnLCAnLXRuJywgJzgnLCAnLW1hJywgJzIwMCcsICctaW1hZScsICc8aW5maWxlLm1hZT4nLCAnLW9tYWUnLCAnPG91dGZpbGUubWFlPic=

> <r_epik_Ionization_Penalty>
  0.0000

> <r_epik_Ionization_Penalty_Charging>
  0.0000

> <r_epik_Ionization_Penalty_Neutral>
  0.0000

> <r_epik_State_Penalty>
  0.0000

> <r_epik_Charging_Adjusted_Penalty>
0

> <i_epik_Tot_Q>
0

> <i_epik_Tot_abs_Q>
0

> <s_lp_Force_Field>
OPLS3e

> <r_lp_Energy>
37.543203

> <b_lp_Chiralities_Consistent>
1

> <s_lp_Variant>
316-1

> <s_m_job_name>
ligprep_30

> <s_m_Source_Path>
/home/andre/Documents/projects/Esterase/data/FINAL_STUFF/Compounds/MAE_external

> <s_m_Source_File>
154.mae

> <i_m_Source_File_Index>
1

> <r_lp_tautomer_probability>
1

> <s_epik_Chemistry_Notes>
This compound has an ester and may undergo hydrolysis at high or low pH. This compound has an imine and may undergo hydrolysis.

$$$$
