155
                    3D
 Schrodinger Suite 2021-1.
 46 49  0  0  1  0            999 V2000
  -10.4022   -0.1425   -1.4193 C   0  0  0  0  0  0
   -9.0157   -0.1351   -1.2902 C   0  0  0  0  0  0
   -8.4157    0.0188   -0.0149 C   0  0  0  0  0  0
   -9.2527    0.1659    1.1317 C   0  0  0  0  0  0
  -10.6604    0.1534    0.9657 C   0  0  0  0  0  0
  -11.2174    0.0004   -0.3013 C   0  0  0  0  0  0
   -8.6525    0.3210    2.4025 C   0  0  0  0  0  0
   -7.2665    0.3297    2.5311 C   0  0  0  0  0  0
   -6.4287    0.1851    1.4192 C   0  0  0  0  0  0
   -7.0084    0.0310    0.1506 C   0  0  0  0  0  0
   -4.9397    0.2066    1.6137 C   0  0  0  0  0  0
   -4.4060    0.4128    2.7092 O   0  0  0  0  0  0
   -4.2450   -0.0443    0.4595 O   0  0  0  0  0  0
   -2.8664   -0.0480    0.4747 C   0  0  0  0  0  0
   -2.1635   -1.2269    0.7481 C   0  0  0  0  0  0
   -0.7683   -1.2282    0.7480 C   0  0  0  0  0  0
   -0.0495   -0.0579    0.4664 C   0  0  0  0  0  0
   -0.7615    1.1127    0.1815 C   0  0  0  0  0  0
   -2.1564    1.1216    0.1825 C   0  0  0  0  0  0
   -2.8306   -2.3743    1.0141 F   0  0  0  0  0  0
   -2.8160    2.2697   -0.0994 F   0  0  0  0  0  0
    1.4299   -0.0022    0.4612 C   0  0  0  0  0  0
    4.2468   -1.5854    1.6975 N   0  0  0  0  0  0
    3.2535   -2.3078    2.2502 C   0  0  0  0  0  0
    2.1117   -1.8875    1.9165 N   0  0  0  0  0  0
    2.2937   -0.8310    1.0980 C   0  0  0  0  0  0
    3.7127   -0.6127    0.9424 C   0  0  0  0  0  0
    4.3110    0.2447    0.2859 O   0  0  0  0  0  0
    5.6956   -1.7435    1.8306 C   0  0  0  0  0  0
    3.5383   -3.4856    3.1652 C   0  0  0  0  0  0
  -10.8483   -0.2599   -2.3960 H   0  0  0  0  0  0
   -8.3904   -0.2461   -2.1644 H   0  0  0  0  0  0
  -11.3008    0.2637    1.8292 H   0  0  0  0  0  0
  -12.2913   -0.0073   -0.4174 H   0  0  0  0  0  0
   -9.2771    0.4335    3.2771 H   0  0  0  0  0  0
   -6.8501    0.4503    3.5216 H   0  0  0  0  0  0
   -6.3966   -0.0796   -0.7338 H   0  0  0  0  0  0
   -0.2577   -2.1563    0.9548 H   0  0  0  0  0  0
   -0.2334    2.0291   -0.0408 H   0  0  0  0  0  0
    1.8327    0.7976   -0.1474 H   0  0  0  0  0  0
    6.1478   -1.9443    0.8585 H   0  0  0  0  0  0
    5.9553   -2.5666    2.4965 H   0  0  0  0  0  0
    6.1444   -0.8346    2.2338 H   0  0  0  0  0  0
    4.1150   -4.2521    2.6471 H   0  0  0  0  0  0
    2.6158   -3.9488    3.5174 H   0  0  0  0  0  0
    4.1049   -3.1713    4.0419 H   0  0  0  0  0  0
  1  2  2  0  0  0
  1  6  1  0  0  0
  1 31  1  0  0  0
  2  3  1  0  0  0
  2 32  1  0  0  0
  3  4  2  0  0  0
  3 10  1  0  0  0
  4  5  1  0  0  0
  4  7  1  0  0  0
  5  6  2  0  0  0
  5 33  1  0  0  0
  6 34  1  0  0  0
  7  8  2  0  0  0
  7 35  1  0  0  0
  8  9  1  0  0  0
  8 36  1  0  0  0
  9 10  2  0  0  0
  9 11  1  0  0  0
 10 37  1  0  0  0
 11 12  2  0  0  0
 11 13  1  0  0  0
 13 14  1  0  0  0
 14 15  2  0  0  0
 14 19  1  0  0  0
 15 16  1  0  0  0
 15 20  1  0  0  0
 16 17  2  0  0  0
 16 38  1  0  0  0
 17 18  1  0  0  0
 17 22  1  0  0  0
 18 19  2  0  0  0
 18 39  1  0  0  0
 19 21  1  0  0  0
 22 26  2  0  0  0
 22 40  1  0  0  0
 23 24  1  0  0  0
 23 27  1  0  0  0
 23 29  1  0  0  0
 24 25  2  0  0  0
 24 30  1  0  0  0
 25 26  1  0  0  0
 26 27  1  0  0  0
 27 28  2  0  0  0
 29 41  1  0  0  0
 29 42  1  0  0  0
 29 43  1  0  0  0
 30 44  1  0  0  0
 30 45  1  0  0  0
 30 46  1  0  0  0
M  END
> <s_m_entry_id>
155

> <s_m_entry_name>
entry

> <i_lp_mmshare_version>
47013

> <i_f3d_flags>
0

> <s_epik_input>
W2NIXTFbY0hdW2NIXVtjSF1jKGMxMilbY0hdW2NIXWMoW2NIXTIpQyg9TylPYzNjKEYpW2NIXWMoW2NIXWMzRikvW0NIXT1DKEM0PU8pXE49QyhbQ0gzXSlONFtDSDNd

> <s_epik_cmdline>
J2VwaWtfcHl0aG9uJywgJy1waCcsICc3LjQnLCAnLXRuJywgJzgnLCAnLW1hJywgJzIwMCcsICctaW1hZScsICc8aW5maWxlLm1hZT4nLCAnLW9tYWUnLCAnPG91dGZpbGUubWFlPic=

> <r_epik_Ionization_Penalty>
  0.0001

> <r_epik_Ionization_Penalty_Charging>
  0.0000

> <r_epik_Ionization_Penalty_Neutral>
  0.0001

> <r_epik_State_Penalty>
  0.4107

> <r_epik_Charging_Adjusted_Penalty>
0.410679838952604

> <i_epik_Tot_Q>
0

> <i_epik_Tot_abs_Q>
0

> <s_lp_Force_Field>
OPLS3e

> <r_lp_Energy>
36.490715

> <b_lp_Chiralities_Consistent>
1

> <s_lp_Variant>
318-1

> <s_m_job_name>
ligprep_32

> <s_m_Source_Path>
/home/andre/Documents/projects/Esterase/data/FINAL_STUFF/Compounds/MAE_external

> <s_m_Source_File>
155.mae

> <i_m_Source_File_Index>
1

> <r_lp_tautomer_probability>
0.5

> <s_epik_Chemistry_Notes>
This compound has an imine and may undergo hydrolysis.

$$$$
