158
                    3D
 Schrodinger Suite 2021-1.
 51 53  0  0  1  0            999 V2000
   -1.0041    2.1259   -1.4510 C   0  0  0  0  0  0
   -0.8748    1.3793   -0.1022 C   0  0  0  0  0  0
    0.0426    0.0996   -0.0697 C   0  0  0  0  0  0
    1.5540    0.4586   -0.2145 C   0  0  0  0  0  0
   -0.1125    1.9871   -2.3176 O   0  5  0  0  0  0
   -2.0085    2.8598   -1.5802 O   0  0  0  0  0  0
    1.9993    1.5305    0.2087 O   0  0  0  0  0  0
   -0.1266   -0.5548    1.3259 C   0  0  0  0  0  0
   -0.4213   -0.9493   -1.1266 C   0  0  0  0  0  0
    2.2904   -0.5261   -0.8100 O   0  0  0  0  0  0
    3.6175   -0.2325   -1.1649 C   0  0  0  0  0  0
    3.9613   -1.0597   -2.2982 N   0  0  0  0  0  0
    4.3911   -2.3428   -2.1807 C   0  0  0  0  0  0
    4.5820   -2.7708   -3.4330 N   0  0  0  0  0  0
    4.2111   -1.8377   -4.4696 C   0  0  0  0  0  0
    3.6057   -0.7549   -3.5679 C   0  0  0  0  0  0
    5.4757   -1.3324   -5.2325 C   0  0  0  0  0  0
    5.5700   -0.0195   -5.7282 C   0  0  0  0  0  0
    6.7033    0.4041   -6.4164 C   0  0  0  0  0  0
    7.7564   -0.4805   -6.6243 C   0  0  0  0  0  0
    7.6820   -1.7878   -6.1552 C   0  0  0  0  0  0
    6.5479   -2.2105   -5.4680 C   0  0  0  0  0  0
    3.1375   -2.4817   -5.3962 C   0  0  0  0  0  0
    1.8793   -2.8489   -4.8825 C   0  0  0  0  0  0
    0.9173   -3.4404   -5.6955 C   0  0  0  0  0  0
    1.2009   -3.6802   -7.0357 C   0  0  0  0  0  0
    2.4395   -3.3352   -7.5662 C   0  0  0  0  0  0
    3.4014   -2.7441   -6.7518 C   0  0  0  0  0  0
    4.4897   -3.0197   -1.1575 O   0  0  0  0  0  0
    2.9306    0.2044   -3.9489 O   0  0  0  0  0  0
   -0.5443    2.1061    0.6420 H   0  0  0  0  0  0
   -1.8841    1.0971    0.2038 H   0  0  0  0  0  0
   -1.1617   -0.8509    1.5025 H   0  0  0  0  0  0
    0.1472    0.1262    2.1341 H   0  0  0  0  0  0
    0.4797   -1.4563    1.4346 H   0  0  0  0  0  0
   -1.4849   -1.1668   -1.0215 H   0  0  0  0  0  0
    0.1012   -1.9017   -1.0219 H   0  0  0  0  0  0
   -0.2654   -0.6091   -2.1507 H   0  0  0  0  0  0
    3.7834    0.8161   -1.4352 H   0  0  0  0  0  0
    4.2679   -0.4735   -0.3202 H   0  0  0  0  0  0
    5.2252   -3.5186   -3.6476 H   0  0  0  0  0  0
    4.7645    0.6868   -5.5991 H   0  0  0  0  0  0
    6.7622    1.4153   -6.7914 H   0  0  0  0  0  0
    8.6352   -0.1518   -7.1592 H   0  0  0  0  0  0
    8.4990   -2.4732   -6.3267 H   0  0  0  0  0  0
    6.5069   -3.2337   -5.1242 H   0  0  0  0  0  0
    1.6399   -2.6791   -3.8425 H   0  0  0  0  0  0
   -0.0442   -3.7132   -5.2864 H   0  0  0  0  0  0
    0.4557   -4.1395   -7.6685 H   0  0  0  0  0  0
    2.6543   -3.5257   -8.6073 H   0  0  0  0  0  0
    4.3503   -2.4937   -7.2000 H   0  0  0  0  0  0
  1  2  1  0  0  0
  1  5  1  0  0  0
  1  6  2  0  0  0
  2  3  1  0  0  0
  2 31  1  0  0  0
  2 32  1  0  0  0
  3  4  1  0  0  0
  3  8  1  0  0  0
  3  9  1  0  0  0
  4  7  2  0  0  0
  4 10  1  0  0  0
  8 33  1  0  0  0
  8 34  1  0  0  0
  8 35  1  0  0  0
  9 36  1  0  0  0
  9 37  1  0  0  0
  9 38  1  0  0  0
 10 11  1  0  0  0
 11 12  1  0  0  0
 11 39  1  0  0  0
 11 40  1  0  0  0
 12 13  1  0  0  0
 12 16  1  0  0  0
 13 14  1  0  0  0
 13 29  2  0  0  0
 14 15  1  0  0  0
 14 41  1  0  0  0
 15 16  1  0  0  0
 15 17  1  0  0  0
 15 23  1  0  0  0
 16 30  2  0  0  0
 17 18  2  0  0  0
 17 22  1  0  0  0
 18 19  1  0  0  0
 18 42  1  0  0  0
 19 20  2  0  0  0
 19 43  1  0  0  0
 20 21  1  0  0  0
 20 44  1  0  0  0
 21 22  2  0  0  0
 21 45  1  0  0  0
 22 46  1  0  0  0
 23 24  2  0  0  0
 23 28  1  0  0  0
 24 25  1  0  0  0
 24 47  1  0  0  0
 25 26  2  0  0  0
 25 48  1  0  0  0
 26 27  1  0  0  0
 26 49  1  0  0  0
 27 28  2  0  0  0
 27 50  1  0  0  0
 28 51  1  0  0  0
M  CHG  1   5  -1
M  END
> <s_m_entry_id>
158

> <s_m_entry_name>
entry

> <i_lp_mmshare_version>
47013

> <i_f3d_flags>
0

> <s_epik_input>
W09IXUMoPU8pW0NIMl1DKFtDSDNdKShbQ0gzXSlDKD1PKU9bQ0gyXU4oQzE9TylDKD1PKVtOSF1DMShjMltjSF1bY0hdW2NIXVtjSF1bY0hdMiljM1tjSF1bY0hdW2NIXVtjSF1bY0hdMw==

> <s_epik_cmdline>
J2VwaWtfcHl0aG9uJywgJy1waCcsICc3LjQnLCAnLXRuJywgJzgnLCAnLW1hJywgJzIwMCcsICctaW1hZScsICc8aW5maWxlLm1hZT4nLCAnLW9tYWUnLCAnPG91dGZpbGUubWFlPic=

> <r_epik_Ionization_Penalty>
  0.0189

> <r_epik_Ionization_Penalty_Charging>
  0.0005

> <r_epik_Ionization_Penalty_Neutral>
  0.0183

> <r_epik_State_Penalty>
  0.0146

> <r_epik_Charging_Adjusted_Penalty>
0.015136721396746

> <i_epik_Tot_Q>
-1

> <i_epik_Tot_abs_Q>
1

> <s_lp_Force_Field>
OPLS3e

> <r_lp_Energy>
46.858245

> <b_lp_Chiralities_Consistent>
1

> <s_lp_Variant>
320-1

> <s_m_job_name>
ligprep_34

> <s_m_Source_Path>
/home/andre/Documents/projects/Esterase/data/FINAL_STUFF/Compounds/MAE_external

> <s_m_Source_File>
158.mae

> <i_m_Source_File_Index>
1

> <r_lp_tautomer_probability>
0.999999999999795

> <s_epik_Chemistry_Notes>
This compound has an ester and may undergo hydrolysis at high or low pH. This compound contains an acetal/aminal-like group ( X-CH(R)-Y where X, Y are N, S, or O) that may be acid/base labile, releasing an aldehyde.

$$$$
