160
                    3D
 Schrodinger Suite 2021-1.
 52 55  0  0  1  0            999 V2000
   -0.8607    1.5522   -1.0680 C   0  0  0  0  0  0
   -2.0277    0.9254   -0.8815 N   0  0  0  0  0  0
   -1.9370   -0.3833   -0.2785 C   0  0  0  0  0  0
   -0.4105   -0.5188   -0.2979 C   0  0  0  0  0  0
    0.0867    0.7048   -0.5906 N   0  0  0  0  0  0
   -2.5258   -0.3295    1.1665 C   0  0  0  0  0  0
   -2.5950   -1.4599   -1.1909 C   0  0  0  0  0  0
   -3.7604    0.3100    1.3720 C   0  0  0  0  0  0
   -4.3317    0.3776    2.6391 C   0  0  0  0  0  0
   -3.6770   -0.2010    3.7209 C   0  0  0  0  0  0
   -2.4595   -0.8491    3.5429 C   0  0  0  0  0  0
   -1.8876   -0.9151    2.2754 C   0  0  0  0  0  0
   -3.6281   -2.2907   -0.7238 C   0  0  0  0  0  0
   -4.2150   -3.2386   -1.5576 C   0  0  0  0  0  0
   -3.7830   -3.3649   -2.8735 C   0  0  0  0  0  0
   -2.7678   -2.5501   -3.3629 C   0  0  0  0  0  0
   -2.1799   -1.6048   -2.5275 C   0  0  0  0  0  0
    0.2231   -1.5518   -0.0668 O   0  0  0  0  0  0
   -0.6957    2.6234   -1.6507 O   0  0  0  0  0  0
    1.4942    1.0241   -0.5183 C   0  0  0  0  0  0
    1.7901    1.2857    0.8287 O   0  0  0  0  0  0
    3.0611    1.0488    1.2554 C   0  0  0  0  0  0
    3.1548    1.1356    2.7967 C   0  0  1  0  0  0
    4.0392    0.8009    0.5429 O   0  0  0  0  0  0
    2.6497   -0.1833    3.4570 C   0  0  1  0  0  0
    3.9349   -0.9855    3.7945 C   0  0  0  0  0  0
    5.1474   -0.1075    3.4552 C   0  0  0  0  0  0
    4.5975    1.3110    3.3096 C   0  0  0  0  0  0
    1.6758    0.0088    4.6362 C   0  0  0  0  0  0
    0.7043   -0.7757    4.7136 O   0  5  0  0  0  0
    1.9355    0.9115    5.4630 O   0  0  0  0  0  0
   -2.8956    1.4360   -0.8098 H   0  0  0  0  0  0
   -4.2880    0.7563    0.5419 H   0  0  0  0  0  0
   -5.2796    0.8751    2.7815 H   0  0  0  0  0  0
   -4.1176   -0.1496    4.7057 H   0  0  0  0  0  0
   -1.9582   -1.3004    4.3864 H   0  0  0  0  0  0
   -0.9458   -1.4327    2.1792 H   0  0  0  0  0  0
   -3.9872   -2.2269    0.2917 H   0  0  0  0  0  0
   -5.0032   -3.8745   -1.1826 H   0  0  0  0  0  0
   -4.2397   -4.0998   -3.5200 H   0  0  0  0  0  0
   -2.4380   -2.6491   -4.3865 H   0  0  0  0  0  0
   -1.3966   -0.9776   -2.9274 H   0  0  0  0  0  0
    2.0650    0.1903   -0.9420 H   0  0  0  0  0  0
    1.7182    1.9229   -1.0986 H   0  0  0  0  0  0
    2.5430    1.9904    3.0899 H   0  0  0  0  0  0
    2.0957   -0.7862    2.7313 H   0  0  0  0  0  0
    3.9693   -1.2655    4.8492 H   0  0  0  0  0  0
    3.9733   -1.9197    3.2322 H   0  0  0  0  0  0
    5.9261   -0.1670    4.2166 H   0  0  0  0  0  0
    5.5912   -0.4339    2.5136 H   0  0  0  0  0  0
    5.2224    1.9362    2.6694 H   0  0  0  0  0  0
    4.5717    1.7937    4.2877 H   0  0  0  0  0  0
  1  2  1  0  0  0
  1  5  1  0  0  0
  1 19  2  0  0  0
  2  3  1  0  0  0
  2 32  1  0  0  0
  3  4  1  0  0  0
  3  6  1  0  0  0
  3  7  1  0  0  0
  4  5  1  0  0  0
  4 18  2  0  0  0
  5 20  1  0  0  0
  6 12  2  0  0  0
  6  8  1  0  0  0
  7 17  2  0  0  0
  7 13  1  0  0  0
  8  9  2  0  0  0
  8 33  1  0  0  0
  9 10  1  0  0  0
  9 34  1  0  0  0
 10 11  2  0  0  0
 10 35  1  0  0  0
 11 12  1  0  0  0
 11 36  1  0  0  0
 12 37  1  0  0  0
 13 14  2  0  0  0
 13 38  1  0  0  0
 14 15  1  0  0  0
 14 39  1  0  0  0
 15 16  2  0  0  0
 15 40  1  0  0  0
 16 17  1  0  0  0
 16 41  1  0  0  0
 17 42  1  0  0  0
 20 21  1  0  0  0
 20 43  1  0  0  0
 20 44  1  0  0  0
 21 22  1  0  0  0
 22 23  1  0  0  0
 22 24  2  0  0  0
 23 28  1  0  0  0
 23 25  1  0  0  0
 23 45  1  0  0  0
 25 26  1  0  0  0
 25 29  1  0  0  0
 25 46  1  0  0  0
 26 27  1  0  0  0
 26 47  1  0  0  0
 26 48  1  0  0  0
 27 28  1  0  0  0
 27 49  1  0  0  0
 27 50  1  0  0  0
 28 51  1  0  0  0
 28 52  1  0  0  0
 29 30  1  0  0  0
 29 31  2  0  0  0
M  CHG  1  30  -1
M  END
> <s_m_entry_id>
160

> <s_m_entry_name>
entry

> <i_lp_mmshare_version>
47013

> <i_f3d_flags>
0

> <s_epik_input>
W2NIXTFbY0hdW2NIXVtjSF1bY0hdYzFDMihjM1tjSF1bY0hdW2NIXVtjSF1bY0hdMylbTkhdQyg9TylOKEMyPU8pW0NIMl1PQyg9TylbQ0BIXTRbQ0BIXShDKD1PKVtPSF0pW0NIMl1bQ0gyXVtDSDJdNA==

> <s_epik_cmdline>
J2VwaWtfcHl0aG9uJywgJy1waCcsICc3LjQnLCAnLXRuJywgJzgnLCAnLW1hJywgJzIwMCcsICctaW1hZScsICc8aW5maWxlLm1hZT4nLCAnLW9tYWUnLCAnPG91dGZpbGUubWFlPic=

> <r_epik_Ionization_Penalty>
  0.0187

> <r_epik_Ionization_Penalty_Charging>
  0.0007

> <r_epik_Ionization_Penalty_Neutral>
  0.0180

> <r_epik_State_Penalty>
  0.0143

> <r_epik_Charging_Adjusted_Penalty>
0.0150240223385494

> <i_epik_Tot_Q>
-1

> <i_epik_Tot_abs_Q>
1

> <s_lp_Force_Field>
OPLS3e

> <r_lp_Energy>
56.876752

> <b_lp_Chiralities_Consistent>
1

> <s_lp_Variant>
322-1

> <s_m_job_name>
ligprep_36

> <s_m_Source_Path>
/home/andre/Documents/projects/Esterase/data/FINAL_STUFF/Compounds/MAE_external

> <s_m_Source_File>
160.mae

> <i_m_Source_File_Index>
1

> <r_lp_tautomer_probability>
0.999999999999795

> <s_epik_Chemistry_Notes>
This compound has an ester and may undergo hydrolysis at high or low pH. This compound contains an acetal/aminal-like group ( X-CH(R)-Y where X, Y are N, S, or O) that may be acid/base labile, releasing an aldehyde.

$$$$
