163
                    3D
 Schrodinger Suite 2021-1.
 48 50  0  0  1  0            999 V2000
   -2.7962    2.3262   -0.9689 C   0  0  0  0  0  0
   -1.9818    1.0765   -0.5871 C   0  0  0  0  0  0
   -0.4947    1.3714   -0.2820 C   0  0  0  0  0  0
    0.2721    0.1014    0.1424 C   0  0  0  0  0  0
    1.7538    0.3223    0.4720 C   0  0  0  0  0  0
   -2.2131    3.4294   -1.0717 O   0  5  0  0  0  0
   -4.0193    2.1477   -1.1594 O   0  0  0  0  0  0
    2.3004    1.4226    0.3471 O   0  0  0  0  0  0
    2.3373   -0.8275    0.9058 O   0  0  0  0  0  0
    3.6911   -0.7575    1.2716 C   0  0  0  0  0  0
    4.0981   -2.0602    1.7458 N   0  0  0  0  0  0
    3.8580   -2.4983    3.0086 C   0  0  0  0  0  0
    4.3857   -3.7258    3.0657 N   0  0  0  0  0  0
    4.9259   -4.2239    1.8232 C   0  0  0  0  0  0
    4.4726   -3.0671    0.9235 C   0  0  0  0  0  0
    6.4809   -4.3338    1.9076 C   0  0  0  0  0  0
    7.3083   -4.0638    0.8027 C   0  0  0  0  0  0
    8.6918   -4.1816    0.9013 C   0  0  0  0  0  0
    9.2678   -4.5781    2.1037 C   0  0  0  0  0  0
    8.4704   -4.8632    3.2071 C   0  0  0  0  0  0
    7.0872   -4.7450    3.1075 C   0  0  0  0  0  0
    4.2239   -5.5604    1.4402 C   0  0  0  0  0  0
    2.8389   -5.5923    1.1917 C   0  0  0  0  0  0
    2.1958   -6.7816    0.8627 C   0  0  0  0  0  0
    2.9278   -7.9615    0.7851 C   0  0  0  0  0  0
    4.2955   -7.9598    1.0378 C   0  0  0  0  0  0
    4.9377   -6.7690    1.3663 C   0  0  0  0  0  0
    3.2090   -1.9415    3.8938 O   0  0  0  0  0  0
    4.4709   -3.0708   -0.3101 O   0  0  0  0  0  0
   -2.4512    0.6185    0.2849 H   0  0  0  0  0  0
   -2.0542    0.3595   -1.4063 H   0  0  0  0  0  0
   -0.0175    1.8065   -1.1625 H   0  0  0  0  0  0
   -0.4232    2.1160    0.5136 H   0  0  0  0  0  0
   -0.2105   -0.3353    1.0173 H   0  0  0  0  0  0
    0.2058   -0.6429   -0.6518 H   0  0  0  0  0  0
    4.3084   -0.4765    0.4125 H   0  0  0  0  0  0
    3.8449   -0.0230    2.0688 H   0  0  0  0  0  0
    4.6893   -4.1350    3.9372 H   0  0  0  0  0  0
    6.8934   -3.7717   -0.1494 H   0  0  0  0  0  0
    9.3156   -3.9705    0.0450 H   0  0  0  0  0  0
   10.3412   -4.6710    2.1791 H   0  0  0  0  0  0
    8.9223   -5.1786    4.1360 H   0  0  0  0  0  0
    6.4871   -4.9835    3.9733 H   0  0  0  0  0  0
    2.2491   -4.6893    1.2559 H   0  0  0  0  0  0
    1.1329   -6.7882    0.6706 H   0  0  0  0  0  0
    2.4303   -8.8857    0.5304 H   0  0  0  0  0  0
    4.8580   -8.8801    0.9804 H   0  0  0  0  0  0
    5.9991   -6.8103    1.5569 H   0  0  0  0  0  0
  1  2  1  0  0  0
  1  6  1  0  0  0
  1  7  2  0  0  0
  2  3  1  0  0  0
  2 30  1  0  0  0
  2 31  1  0  0  0
  3  4  1  0  0  0
  3 32  1  0  0  0
  3 33  1  0  0  0
  4  5  1  0  0  0
  4 34  1  0  0  0
  4 35  1  0  0  0
  5  8  2  0  0  0
  5  9  1  0  0  0
  9 10  1  0  0  0
 10 11  1  0  0  0
 10 36  1  0  0  0
 10 37  1  0  0  0
 11 12  1  0  0  0
 11 15  1  0  0  0
 12 13  1  0  0  0
 12 28  2  0  0  0
 13 14  1  0  0  0
 13 38  1  0  0  0
 14 15  1  0  0  0
 14 16  1  0  0  0
 14 22  1  0  0  0
 15 29  2  0  0  0
 16 17  2  0  0  0
 16 21  1  0  0  0
 17 18  1  0  0  0
 17 39  1  0  0  0
 18 19  2  0  0  0
 18 40  1  0  0  0
 19 20  1  0  0  0
 19 41  1  0  0  0
 20 21  2  0  0  0
 20 42  1  0  0  0
 21 43  1  0  0  0
 22 23  2  0  0  0
 22 27  1  0  0  0
 23 24  1  0  0  0
 23 44  1  0  0  0
 24 25  2  0  0  0
 24 45  1  0  0  0
 25 26  1  0  0  0
 25 46  1  0  0  0
 26 27  2  0  0  0
 26 47  1  0  0  0
 27 48  1  0  0  0
M  CHG  1   6  -1
M  END
> <s_m_entry_id>
163

> <s_m_entry_name>
entry

> <i_lp_mmshare_version>
47013

> <i_f3d_flags>
0

> <s_epik_input>
W09IXUMoPU8pW0NIMl1bQ0gyXVtDSDJdQyg9TylPW0NIMl1OKEMxPU8pQyg9TylbTkhdQzEoYzJbY0hdW2NIXVtjSF1bY0hdW2NIXTIpYzNbY0hdW2NIXVtjSF1bY0hdW2NIXTM=

> <s_epik_cmdline>
J2VwaWtfcHl0aG9uJywgJy1waCcsICc3LjQnLCAnLXRuJywgJzgnLCAnLW1hJywgJzIwMCcsICctaW1hZScsICc8aW5maWxlLm1hZT4nLCAnLW9tYWUnLCAnPG91dGZpbGUubWFlPic=

> <r_epik_Ionization_Penalty>
  0.0190

> <r_epik_Ionization_Penalty_Charging>
  0.0010

> <r_epik_Ionization_Penalty_Neutral>
  0.0180

> <r_epik_State_Penalty>
  0.0143

> <r_epik_Charging_Adjusted_Penalty>
0.0153003147424513

> <i_epik_Tot_Q>
-1

> <i_epik_Tot_abs_Q>
1

> <s_lp_Force_Field>
OPLS3e

> <r_lp_Energy>
44.040039

> <b_lp_Chiralities_Consistent>
1

> <s_lp_Variant>
325-1

> <s_m_job_name>
ligprep_39

> <s_m_Source_Path>
/home/andre/Documents/projects/Esterase/data/FINAL_STUFF/Compounds/MAE_external

> <s_m_Source_File>
163.mae

> <i_m_Source_File_Index>
1

> <r_lp_tautomer_probability>
0.999999999999795

> <s_epik_Chemistry_Notes>
This compound has an ester and may undergo hydrolysis at high or low pH. This compound contains an acetal/aminal-like group ( X-CH(R)-Y where X, Y are N, S, or O) that may be acid/base labile, releasing an aldehyde.

$$$$
