164
                    3D
 Schrodinger Suite 2021-1.
 51 53  0  0  1  0            999 V2000
   -2.2766    3.7091   -1.1873 C   0  0  0  0  0  0
   -2.5227    2.8256    0.0499 C   0  0  0  0  0  0
   -1.9499    1.3906   -0.0641 C   0  0  0  0  0  0
   -0.4099    1.3130   -0.1036 C   0  0  0  0  0  0
    0.1009   -0.1393   -0.1496 C   0  0  0  0  0  0
    1.6268   -0.2259   -0.1891 C   0  0  0  0  0  0
   -2.3052    4.9456   -1.0021 O   0  5  0  0  0  0
   -2.0927    3.1568   -2.2954 O   0  0  0  0  0  0
    2.2272   -0.3468   -1.2599 O   0  0  0  0  0  0
    2.1765   -0.1550    1.0546 O   0  0  0  0  0  0
    3.5770   -0.2194    1.1338 C   0  0  0  0  0  0
    3.9562   -0.1609    2.5269 N   0  0  0  0  0  0
    4.0733    1.0025    3.2174 C   0  0  0  0  0  0
    4.4586    0.6479    4.4481 N   0  0  0  0  0  0
    4.5250   -0.7740    4.6882 C   0  0  0  0  0  0
    3.9358   -1.2353    3.3490 C   0  0  0  0  0  0
    6.0065   -1.2302    4.8722 C   0  0  0  0  0  0
    6.4684   -2.4724    4.4013 C   0  0  0  0  0  0
    7.7908   -2.8621    4.5944 C   0  0  0  0  0  0
    8.6685   -2.0186    5.2672 C   0  0  0  0  0  0
    8.2329   -0.7901    5.7522 C   0  0  0  0  0  0
    6.9107   -0.4014    5.5585 C   0  0  0  0  0  0
    3.6023   -1.1527    5.8841 C   0  0  0  0  0  0
    2.2163   -0.9184    5.8167 C   0  0  0  0  0  0
    1.3820   -1.2361    6.8842 C   0  0  0  0  0  0
    1.9228   -1.7875    8.0406 C   0  0  0  0  0  0
    3.2907   -2.0193    8.1371 C   0  0  0  0  0  0
    4.1242   -1.7009    7.0686 C   0  0  0  0  0  0
    3.7968    2.1405    2.8396 O   0  0  0  0  0  0
    3.5418   -2.3747    3.0883 O   0  0  0  0  0  0
   -2.1208    3.3153    0.9385 H   0  0  0  0  0  0
   -3.6018    2.7674    0.1960 H   0  0  0  0  0  0
   -2.3002    0.8211    0.7977 H   0  0  0  0  0  0
   -2.3726    0.8847   -0.9342 H   0  0  0  0  0  0
   -0.0355    1.8583   -0.9717 H   0  0  0  0  0  0
   -0.0034    1.8206    0.7732 H   0  0  0  0  0  0
   -0.2668   -0.6940    0.7145 H   0  0  0  0  0  0
   -0.3018   -0.6423   -1.0295 H   0  0  0  0  0  0
    3.9518   -1.1521    0.7001 H   0  0  0  0  0  0
    4.0320    0.6222    0.6016 H   0  0  0  0  0  0
    4.9737    1.2766    5.0467 H   0  0  0  0  0  0
    5.8095   -3.1585    3.8923 H   0  0  0  0  0  0
    8.1326   -3.8189    4.2283 H   0  0  0  0  0  0
    9.6937   -2.3224    5.4196 H   0  0  0  0  0  0
    8.9168   -0.1425    6.2807 H   0  0  0  0  0  0
    6.5914    0.5509    5.9555 H   0  0  0  0  0  0
    1.7769   -0.4820    4.9315 H   0  0  0  0  0  0
    0.3197   -1.0530    6.8158 H   0  0  0  0  0  0
    1.2770   -2.0341    8.8704 H   0  0  0  0  0  0
    3.7060   -2.4441    9.0392 H   0  0  0  0  0  0
    5.1795   -1.8938    7.1842 H   0  0  0  0  0  0
  1  2  1  0  0  0
  1  7  1  0  0  0
  1  8  2  0  0  0
  2  3  1  0  0  0
  2 31  1  0  0  0
  2 32  1  0  0  0
  3  4  1  0  0  0
  3 33  1  0  0  0
  3 34  1  0  0  0
  4  5  1  0  0  0
  4 35  1  0  0  0
  4 36  1  0  0  0
  5  6  1  0  0  0
  5 37  1  0  0  0
  5 38  1  0  0  0
  6  9  2  0  0  0
  6 10  1  0  0  0
 10 11  1  0  0  0
 11 12  1  0  0  0
 11 39  1  0  0  0
 11 40  1  0  0  0
 12 13  1  0  0  0
 12 16  1  0  0  0
 13 14  1  0  0  0
 13 29  2  0  0  0
 14 15  1  0  0  0
 14 41  1  0  0  0
 15 16  1  0  0  0
 15 17  1  0  0  0
 15 23  1  0  0  0
 16 30  2  0  0  0
 17 18  2  0  0  0
 17 22  1  0  0  0
 18 19  1  0  0  0
 18 42  1  0  0  0
 19 20  2  0  0  0
 19 43  1  0  0  0
 20 21  1  0  0  0
 20 44  1  0  0  0
 21 22  2  0  0  0
 21 45  1  0  0  0
 22 46  1  0  0  0
 23 24  2  0  0  0
 23 28  1  0  0  0
 24 25  1  0  0  0
 24 47  1  0  0  0
 25 26  2  0  0  0
 25 48  1  0  0  0
 26 27  1  0  0  0
 26 49  1  0  0  0
 27 28  2  0  0  0
 27 50  1  0  0  0
 28 51  1  0  0  0
M  CHG  1   7  -1
M  END
> <s_m_entry_id>
164

> <s_m_entry_name>
entry

> <i_lp_mmshare_version>
47013

> <i_f3d_flags>
0

> <s_epik_input>
W09IXUMoPU8pW0NIMl1bQ0gyXVtDSDJdW0NIMl1DKD1PKU9bQ0gyXU4oQzE9TylDKD1PKVtOSF1DMShjMltjSF1bY0hdW2NIXVtjSF1bY0hdMiljM1tjSF1bY0hdW2NIXVtjSF1bY0hdMw==

> <s_epik_cmdline>
J2VwaWtfcHl0aG9uJywgJy1waCcsICc3LjQnLCAnLXRuJywgJzgnLCAnLW1hJywgJzIwMCcsICctaW1hZScsICc8aW5maWxlLm1hZT4nLCAnLW9tYWUnLCAnPG91dGZpbGUubWFlPic=

> <r_epik_Ionization_Penalty>
  0.0196

> <r_epik_Ionization_Penalty_Charging>
  0.0015

> <r_epik_Ionization_Penalty_Neutral>
  0.0181

> <r_epik_State_Penalty>
  0.0144

> <r_epik_Charging_Adjusted_Penalty>
0.0159210553376894

> <i_epik_Tot_Q>
-1

> <i_epik_Tot_abs_Q>
1

> <s_lp_Force_Field>
OPLS3e

> <r_lp_Energy>
42.895938

> <b_lp_Chiralities_Consistent>
1

> <s_lp_Variant>
326-1

> <s_m_job_name>
ligprep_40

> <s_m_Source_Path>
/home/andre/Documents/projects/Esterase/data/FINAL_STUFF/Compounds/MAE_external

> <s_m_Source_File>
164.mae

> <i_m_Source_File_Index>
1

> <r_lp_tautomer_probability>
0.999999999999795

> <s_epik_Chemistry_Notes>
This compound has an ester and may undergo hydrolysis at high or low pH. This compound contains an acetal/aminal-like group ( X-CH(R)-Y where X, Y are N, S, or O) that may be acid/base labile, releasing an aldehyde.

$$$$
