165
                    3D
 Schrodinger Suite 2021-1.
 97100  0  0  1  0            999 V2000
   -1.2318    3.9159    0.8212 C   0  0  0  0  0  0
   -0.8221    2.4372    0.7522 C   0  0  0  0  0  0
   -1.2643    1.6716   -0.5218 C   0  0  1  0  0  0
   -0.7357    0.2180   -0.5785 C   0  0  0  0  0  0
    0.8017    0.0734   -0.6977 C   0  0  1  0  0  0
    1.2984   -1.3869   -0.6006 C   0  0  0  0  0  0
    0.7821   -2.3397   -1.7042 C   0  0  0  0  0  0
   -1.6610    4.5282   -0.1598 O   0  0  0  0  0  0
   -1.0715    4.4212    2.0606 O   0  0  0  0  0  0
   -2.6788    1.6183   -0.5799 O   0  0  0  0  0  0
    1.2554    0.6517   -1.9077 O   0  0  0  0  0  0
    1.3254   -3.6918   -1.5212 N   0  0  0  0  0  0
    2.5151   -4.1490   -2.0632 C   0  0  0  0  0  0
    2.7480   -5.4396   -1.5954 C   0  0  0  0  0  0
    1.6597   -5.7750   -0.7653 C   0  0  0  0  0  0
    0.8165   -4.6589   -0.6642 C   0  0  0  0  0  0
   -1.6628   -5.1508   -0.5131 C   0  0  0  0  0  0
   -0.4731   -4.4287    0.1426 C   0  0  0  0  0  0
   -0.3346   -4.8075    1.6296 C   0  0  0  0  0  0
    1.4981   -7.0157   -0.0633 C   0  0  0  0  0  0
    0.8066   -7.9174   -0.5355 O   0  0  0  0  0  0
    2.1738   -7.0417    1.1052 N   0  0  0  0  0  0
    2.2354   -8.0637    2.0685 C   0  0  0  0  0  0
    3.2778   -7.9709    2.9947 C   0  0  0  0  0  0
    3.4157   -8.9314    3.9930 C   0  0  0  0  0  0
    2.5052   -9.9822    4.0702 C   0  0  0  0  0  0
    1.4554  -10.0791    3.1606 C   0  0  0  0  0  0
    1.3152   -9.1210    2.1598 C   0  0  0  0  0  0
    3.9268   -6.2872   -1.9551 C   0  0  0  0  0  0
    4.7920   -6.7603   -0.9639 C   0  0  0  0  0  0
    5.8878   -7.5455   -1.3113 C   0  0  0  0  0  0
    6.1197   -7.8524   -2.6502 C   0  0  0  0  0  0
    5.2671   -7.3790   -3.6449 C   0  0  0  0  0  0
    4.1705   -6.5949   -3.2970 C   0  0  0  0  0  0
    3.3786   -3.3405   -2.9740 C   0  0  0  0  0  0
    2.9286   -2.9824   -4.2479 C   0  0  0  0  0  0
    3.7512   -2.2431   -5.0934 C   0  0  0  0  0  0
    5.0247   -1.8714   -4.6670 C   0  0  0  0  0  0
    5.4834   -2.2358   -3.4026 C   0  0  0  0  0  0
    4.6607   -2.9743   -2.5563 C   0  0  0  0  0  0
    5.8234   -1.1533   -5.4885 F   0  0  0  0  0  0
   -1.3923    5.7794    2.3387 C   0  0  0  0  0  0
   -1.2378    6.0715    3.8403 C   0  0  0  0  0  0
    0.2113    5.9396    4.3530 C   0  0  0  0  0  0
    0.3691    6.1498    5.8723 C   0  0  0  0  0  0
    0.0636    7.5816    6.3547 C   0  0  0  0  0  0
    0.3012    7.7682    7.8638 C   0  0  0  0  0  0
   -0.0086    9.1918    8.3469 C   0  0  0  0  0  0
    0.2635    2.4119    0.8343 H   0  0  0  0  0  0
   -1.2065    1.9257    1.6357 H   0  0  0  0  0  0
   -0.9269    2.2045   -1.4122 H   0  0  0  0  0  0
   -1.0789   -0.3204    0.3069 H   0  0  0  0  0  0
   -1.1992   -0.2865   -1.4282 H   0  0  0  0  0  0
    1.2760    0.6234    0.1149 H   0  0  0  0  0  0
    2.3900   -1.3838   -0.6177 H   0  0  0  0  0  0
    1.0290   -1.7803    0.3806 H   0  0  0  0  0  0
   -0.3053   -2.3942   -1.7336 H   0  0  0  0  0  0
    1.0584   -1.9633   -2.6871 H   0  0  0  0  0  0
   -3.0167    2.5174   -0.5737 H   0  0  0  0  0  0
    0.9619    1.5653   -1.9398 H   0  0  0  0  0  0
   -1.8098   -4.8170   -1.5408 H   0  0  0  0  0  0
   -2.5892   -4.9590    0.0293 H   0  0  0  0  0  0
   -1.5148   -6.2311   -0.5339 H   0  0  0  0  0  0
   -0.7367   -3.3727    0.1623 H   0  0  0  0  0  0
    0.5534   -4.3566    2.0742 H   0  0  0  0  0  0
   -0.2773   -5.8851    1.7784 H   0  0  0  0  0  0
   -1.1968   -4.4601    2.2001 H   0  0  0  0  0  0
    2.7377   -6.2312    1.3143 H   0  0  0  0  0  0
    3.9898   -7.1592    2.9434 H   0  0  0  0  0  0
    4.2249   -8.8612    4.7046 H   0  0  0  0  0  0
    2.6114  -10.7265    4.8456 H   0  0  0  0  0  0
    0.7489  -10.8928    3.2333 H   0  0  0  0  0  0
    0.4804   -9.2132    1.4832 H   0  0  0  0  0  0
    4.6248   -6.5155    0.0743 H   0  0  0  0  0  0
    6.5559   -7.9128   -0.5464 H   0  0  0  0  0  0
    6.9698   -8.4618   -2.9196 H   0  0  0  0  0  0
    5.4551   -7.6194   -4.6809 H   0  0  0  0  0  0
    3.5101   -6.2296   -4.0703 H   0  0  0  0  0  0
    1.9444   -3.2767   -4.5826 H   0  0  0  0  0  0
    3.4040   -1.9613   -6.0764 H   0  0  0  0  0  0
    6.4735   -1.9486   -3.0806 H   0  0  0  0  0  0
    5.0190   -3.2597   -1.5777 H   0  0  0  0  0  0
   -0.7485    6.4425    1.7582 H   0  0  0  0  0  0
   -2.4213    5.9819    2.0357 H   0  0  0  0  0  0
   -1.5995    7.0826    4.0270 H   0  0  0  0  0  0
   -1.8936    5.4075    4.4054 H   0  0  0  0  0  0
    0.5876    4.9456    4.1073 H   0  0  0  0  0  0
    0.8548    6.6406    3.8191 H   0  0  0  0  0  0
   -0.2656    5.4395    6.4043 H   0  0  0  0  0  0
    1.3938    5.8968    6.1488 H   0  0  0  0  0  0
    0.6823    8.2895    5.8011 H   0  0  0  0  0  0
   -0.9721    7.8350    6.1262 H   0  0  0  0  0  0
   -0.3142    7.0609    8.4217 H   0  0  0  0  0  0
    1.3375    7.5272    8.1053 H   0  0  0  0  0  0
    0.1691    9.2863    9.4183 H   0  0  0  0  0  0
   -1.0504    9.4550    8.1603 H   0  0  0  0  0  0
    0.6188    9.9270    7.8417 H   0  0  0  0  0  0
  1  2  1  0  0  0
  1  9  1  0  0  0
  1  8  2  0  0  0
  2  3  1  0  0  0
  2 49  1  0  0  0
  2 50  1  0  0  0
  3  4  1  0  0  0
  3 10  1  0  0  0
  3 51  1  0  0  0
  4  5  1  0  0  0
  4 52  1  0  0  0
  4 53  1  0  0  0
  5  6  1  0  0  0
  5 11  1  0  0  0
  5 54  1  0  0  0
  6  7  1  0  0  0
  6 55  1  0  0  0
  6 56  1  0  0  0
  7 12  1  0  0  0
  7 57  1  0  0  0
  7 58  1  0  0  0
  9 42  1  0  0  0
 10 59  1  0  0  0
 11 60  1  0  0  0
 12 13  1  0  0  0
 12 16  1  0  0  0
 13 14  2  0  0  0
 13 35  1  0  0  0
 14 15  1  0  0  0
 14 29  1  0  0  0
 15 16  2  0  0  0
 15 20  1  0  0  0
 16 18  1  0  0  0
 17 18  1  0  0  0
 17 61  1  0  0  0
 17 62  1  0  0  0
 17 63  1  0  0  0
 18 19  1  0  0  0
 18 64  1  0  0  0
 19 65  1  0  0  0
 19 66  1  0  0  0
 19 67  1  0  0  0
 20 21  2  0  0  0
 20 22  1  0  0  0
 22 23  1  0  0  0
 22 68  1  0  0  0
 23 24  2  0  0  0
 23 28  1  0  0  0
 24 25  1  0  0  0
 24 69  1  0  0  0
 25 26  2  0  0  0
 25 70  1  0  0  0
 26 27  1  0  0  0
 26 71  1  0  0  0
 27 28  2  0  0  0
 27 72  1  0  0  0
 28 73  1  0  0  0
 29 30  2  0  0  0
 29 34  1  0  0  0
 30 31  1  0  0  0
 30 74  1  0  0  0
 31 32  2  0  0  0
 31 75  1  0  0  0
 32 33  1  0  0  0
 32 76  1  0  0  0
 33 34  2  0  0  0
 33 77  1  0  0  0
 34 78  1  0  0  0
 35 36  2  0  0  0
 35 40  1  0  0  0
 36 37  1  0  0  0
 36 79  1  0  0  0
 37 38  2  0  0  0
 37 80  1  0  0  0
 38 39  1  0  0  0
 38 41  1  0  0  0
 39 40  2  0  0  0
 39 81  1  0  0  0
 40 82  1  0  0  0
 42 43  1  0  0  0
 42 83  1  0  0  0
 42 84  1  0  0  0
 43 44  1  0  0  0
 43 85  1  0  0  0
 43 86  1  0  0  0
 44 45  1  0  0  0
 44 87  1  0  0  0
 44 88  1  0  0  0
 45 46  1  0  0  0
 45 89  1  0  0  0
 45 90  1  0  0  0
 46 47  1  0  0  0
 46 91  1  0  0  0
 46 92  1  0  0  0
 47 48  1  0  0  0
 47 93  1  0  0  0
 47 94  1  0  0  0
 48 95  1  0  0  0
 48 96  1  0  0  0
 48 97  1  0  0  0
M  END
> <s_m_entry_id>
165

> <s_m_entry_name>
327.1

> <i_lp_mmshare_version>
47013

> <i_f3d_flags>
0

> <s_epik_input>
W0NIM11bQ0gyXVtDSDJdW0NIMl1bQ0gyXVtDSDJdW0NIMl1PQyg9TylbQ0gyXVtDQEhdKFtPSF0pW0NIMl1bQ0BIXShbT0hdKVtDSDJdW0NIMl1uMWMoLWMyW2NIXVtjSF1jKEYpW2NIXVtjSF0yKWMoLWMzW2NIXVtjSF1bY0hdW2NIXVtjSF0zKWMoYzFbQ0hdKFtDSDNdKVtDSDNdKUMoPU8pW05IXWM0W2NIXVtjSF1bY0hdW2NIXVtjSF00

> <s_epik_cmdline>
J2VwaWtfcHl0aG9uJywgJy1waCcsICc3LjQnLCAnLXRuJywgJzgnLCAnLW1hJywgJzIwMCcsICctaW1hZScsICc8aW5maWxlLm1hZT4nLCAnLW9tYWUnLCAnPG91dGZpbGUubWFlPic=

> <r_epik_Ionization_Penalty>
  0.0000

> <r_epik_Ionization_Penalty_Charging>
  0.0000

> <r_epik_Ionization_Penalty_Neutral>
  0.0000

> <r_epik_State_Penalty>
  0.0000

> <r_epik_Charging_Adjusted_Penalty>
0

> <i_epik_Tot_Q>
0

> <i_epik_Tot_abs_Q>
0

> <s_lp_Force_Field>
OPLS3e

> <r_lp_Energy>
47.412608

> <b_lp_Chiralities_Consistent>
1

> <s_lp_Variant>
heptyl (3R,5R)7[2(4fluorophenyl)3phenyl4 (phenylcarbamoyl)5(propan2yl)1Hpyrrol1yl] 3,5dihydroxyheptanoate-1

> <s_m_job_name>
ligprep_41

> <s_m_Source_Path>
/home/andre/Documents/projects/Esterase/data/FINAL_STUFF/Compounds/MAE_external

> <s_m_Source_File>
165.mae

> <i_m_Source_File_Index>
1

> <r_lp_tautomer_probability>
1

> <s_epik_Chemistry_Notes>
This compound has an ester and may undergo hydrolysis at high or low pH.

$$$$
