169
                    3D
 Schrodinger Suite 2021-1.
 85 88  0  0  1  0            999 V2000
   -4.8516   -0.1814   -0.6997 C   0  0  0  0  0  0
   -3.5159   -0.6392   -0.0942 C   0  0  0  0  0  0
   -2.4395   -1.1037   -1.1088 C   0  0  1  0  0  0
   -1.0905   -1.4743   -0.4472 C   0  0  0  0  0  0
   -0.3532   -0.3198    0.2725 C   0  0  1  0  0  0
    0.9812   -0.7864    0.8925 C   0  0  0  0  0  0
    1.7256    0.3077    1.6890 C   0  0  0  0  0  0
   -4.9909    0.0290   -1.9067 O   0  0  0  0  0  0
   -5.8153   -0.0568    0.2427 O   0  0  0  0  0  0
   -2.9001   -2.2452   -1.8100 O   0  0  0  0  0  0
   -0.1097    0.7377   -0.6369 O   0  0  0  0  0  0
    2.9498   -0.2341    2.2940 N   0  0  0  0  0  0
    3.0232   -0.8050    3.5538 C   0  0  0  0  0  0
    4.3098   -1.3033    3.7423 C   0  0  0  0  0  0
    5.0346   -1.0109    2.5697 C   0  0  0  0  0  0
    4.1681   -0.4039    1.6486 C   0  0  0  0  0  0
    5.3169    1.3024    0.1655 C   0  0  0  0  0  0
    4.3965    0.0696    0.2028 C   0  0  0  0  0  0
    4.9150   -1.0507   -0.7189 C   0  0  0  0  0  0
    6.4004   -1.3763    2.3271 C   0  0  0  0  0  0
    7.3149   -0.5992    2.5986 O   0  0  0  0  0  0
    6.5171   -2.6126    1.7974 N   0  0  0  0  0  0
    7.6792   -3.3306    1.4641 C   0  0  0  0  0  0
    7.4906   -4.4594    0.6621 C   0  0  0  0  0  0
    8.5785   -5.2429    0.2868 C   0  0  0  0  0  0
    9.8568   -4.9011    0.7197 C   0  0  0  0  0  0
   10.0568   -3.7843    1.5271 C   0  0  0  0  0  0
    8.9711   -2.9977    1.9037 C   0  0  0  0  0  0
    4.7972   -1.9909    4.9794 C   0  0  0  0  0  0
    5.3326   -3.2811    4.9146 C   0  0  0  0  0  0
    5.7791   -3.9107    6.0733 C   0  0  0  0  0  0
    5.6851   -3.2512    7.2967 C   0  0  0  0  0  0
    5.1477   -1.9683    7.3718 C   0  0  0  0  0  0
    4.7032   -1.3384    6.2125 C   0  0  0  0  0  0
    1.8723   -0.8745    4.5020 C   0  0  0  0  0  0
    1.3398    0.2904    5.0613 C   0  0  0  0  0  0
    0.2782    0.2079    5.9581 C   0  0  0  0  0  0
   -0.2430   -1.0387    6.2993 C   0  0  0  0  0  0
    0.2914   -2.2039    5.7532 C   0  0  0  0  0  0
    1.3529   -2.1222    4.8562 C   0  0  0  0  0  0
   -1.2745   -1.1183    7.1698 F   0  0  0  0  0  0
   -7.8151    0.8516    1.1958 C   0  0  0  0  0  0
   -7.1486    0.3352   -0.0880 C   0  0  0  0  0  0
   -7.9388   -0.8346   -0.7090 C   0  0  0  0  0  0
   -3.1293    0.1997    0.4834 H   0  0  0  0  0  0
   -3.7117   -1.4390    0.6211 H   0  0  0  0  0  0
   -2.2667   -0.3212   -1.8495 H   0  0  0  0  0  0
   -1.2561   -2.2868    0.2625 H   0  0  0  0  0  0
   -0.4260   -1.8811   -1.2123 H   0  0  0  0  0  0
   -0.9850    0.0667    1.0728 H   0  0  0  0  0  0
    0.7801   -1.6272    1.5591 H   0  0  0  0  0  0
    1.6312   -1.1754    0.1067 H   0  0  0  0  0  0
    1.9747    1.1742    1.0768 H   0  0  0  0  0  0
    1.0765    0.7077    2.4656 H   0  0  0  0  0  0
   -3.7248   -2.0188   -2.2472 H   0  0  0  0  0  0
    0.4385    0.4055   -1.3516 H   0  0  0  0  0  0
    4.9041    2.1209    0.7563 H   0  0  0  0  0  0
    5.4464    1.6674   -0.8539 H   0  0  0  0  0  0
    6.3092    1.0783    0.5579 H   0  0  0  0  0  0
    3.4642    0.3856   -0.2609 H   0  0  0  0  0  0
    4.3074   -1.9520   -0.6309 H   0  0  0  0  0  0
    5.9487   -1.3176   -0.5035 H   0  0  0  0  0  0
    4.8855   -0.7386   -1.7634 H   0  0  0  0  0  0
    5.6539   -3.0928    1.5907 H   0  0  0  0  0  0
    6.5020   -4.7334    0.3212 H   0  0  0  0  0  0
    8.4312   -6.1128   -0.3364 H   0  0  0  0  0  0
   10.7007   -5.5095    0.4295 H   0  0  0  0  0  0
   11.0512   -3.5309    1.8642 H   0  0  0  0  0  0
    9.1585   -2.1505    2.5441 H   0  0  0  0  0  0
    5.3976   -3.8030    3.9715 H   0  0  0  0  0  0
    6.1938   -4.9067    6.0238 H   0  0  0  0  0  0
    6.0306   -3.7401    8.1957 H   0  0  0  0  0  0
    5.0769   -1.4641    8.3243 H   0  0  0  0  0  0
    4.2884   -0.3426    6.2742 H   0  0  0  0  0  0
    1.7481    1.2568    4.8030 H   0  0  0  0  0  0
   -0.1375    1.1067    6.3892 H   0  0  0  0  0  0
   -0.1145   -3.1669    6.0257 H   0  0  0  0  0  0
    1.7695   -3.0269    4.4370 H   0  0  0  0  0  0
   -8.8385    1.1762    1.0047 H   0  0  0  0  0  0
   -7.2728    1.7060    1.6022 H   0  0  0  0  0  0
   -7.8488    0.0814    1.9676 H   0  0  0  0  0  0
   -7.1152    1.1614   -0.8007 H   0  0  0  0  0  0
   -8.9618   -0.5364   -0.9401 H   0  0  0  0  0  0
   -7.9858   -1.6878   -0.0314 H   0  0  0  0  0  0
   -7.4851   -1.1750   -1.6399 H   0  0  0  0  0  0
  1  2  1  0  0  0
  1  9  1  0  0  0
  1  8  2  0  0  0
  2  3  1  0  0  0
  2 45  1  0  0  0
  2 46  1  0  0  0
  3  4  1  0  0  0
  3 10  1  0  0  0
  3 47  1  0  0  0
  4  5  1  0  0  0
  4 48  1  0  0  0
  4 49  1  0  0  0
  5  6  1  0  0  0
  5 11  1  0  0  0
  5 50  1  0  0  0
  6  7  1  0  0  0
  6 51  1  0  0  0
  6 52  1  0  0  0
  7 12  1  0  0  0
  7 53  1  0  0  0
  7 54  1  0  0  0
  9 43  1  0  0  0
 10 55  1  0  0  0
 11 56  1  0  0  0
 12 13  1  0  0  0
 12 16  1  0  0  0
 13 14  2  0  0  0
 13 35  1  0  0  0
 14 15  1  0  0  0
 14 29  1  0  0  0
 15 16  2  0  0  0
 15 20  1  0  0  0
 16 18  1  0  0  0
 17 18  1  0  0  0
 17 57  1  0  0  0
 17 58  1  0  0  0
 17 59  1  0  0  0
 18 19  1  0  0  0
 18 60  1  0  0  0
 19 61  1  0  0  0
 19 62  1  0  0  0
 19 63  1  0  0  0
 20 21  2  0  0  0
 20 22  1  0  0  0
 22 23  1  0  0  0
 22 64  1  0  0  0
 23 24  2  0  0  0
 23 28  1  0  0  0
 24 25  1  0  0  0
 24 65  1  0  0  0
 25 26  2  0  0  0
 25 66  1  0  0  0
 26 27  1  0  0  0
 26 67  1  0  0  0
 27 28  2  0  0  0
 27 68  1  0  0  0
 28 69  1  0  0  0
 29 30  2  0  0  0
 29 34  1  0  0  0
 30 31  1  0  0  0
 30 70  1  0  0  0
 31 32  2  0  0  0
 31 71  1  0  0  0
 32 33  1  0  0  0
 32 72  1  0  0  0
 33 34  2  0  0  0
 33 73  1  0  0  0
 34 74  1  0  0  0
 35 36  2  0  0  0
 35 40  1  0  0  0
 36 37  1  0  0  0
 36 75  1  0  0  0
 37 38  2  0  0  0
 37 76  1  0  0  0
 38 39  1  0  0  0
 38 41  1  0  0  0
 39 40  2  0  0  0
 39 77  1  0  0  0
 40 78  1  0  0  0
 42 43  1  0  0  0
 42 79  1  0  0  0
 42 80  1  0  0  0
 42 81  1  0  0  0
 43 44  1  0  0  0
 43 82  1  0  0  0
 44 83  1  0  0  0
 44 84  1  0  0  0
 44 85  1  0  0  0
M  END
> <s_m_entry_id>
169

> <s_m_entry_name>
331.1

> <i_lp_mmshare_version>
47013

> <i_f3d_flags>
0

> <s_epik_input>
W0NIM11bQ0hdKFtDSDNdKU9DKD1PKVtDSDJdW0NASF0oW09IXSlbQ0gyXVtDQEhdKFtPSF0pW0NIMl1bQ0gyXW4xYygtYzJbY0hdW2NIXWMoRilbY0hdW2NIXTIpYygtYzNbY0hdW2NIXVtjSF1bY0hdW2NIXTMpYyhjMVtDSF0oW0NIM10pW0NIM10pQyg9TylbTkhdYzRbY0hdW2NIXVtjSF1bY0hdW2NIXTQ=

> <s_epik_cmdline>
J2VwaWtfcHl0aG9uJywgJy1waCcsICc3LjQnLCAnLXRuJywgJzgnLCAnLW1hJywgJzIwMCcsICctaW1hZScsICc8aW5maWxlLm1hZT4nLCAnLW9tYWUnLCAnPG91dGZpbGUubWFlPic=

> <r_epik_Ionization_Penalty>
  0.0000

> <r_epik_Ionization_Penalty_Charging>
  0.0000

> <r_epik_Ionization_Penalty_Neutral>
  0.0000

> <r_epik_State_Penalty>
  0.0000

> <r_epik_Charging_Adjusted_Penalty>
0

> <i_epik_Tot_Q>
0

> <i_epik_Tot_abs_Q>
0

> <s_lp_Force_Field>
OPLS3e

> <r_lp_Energy>
39.851519

> <b_lp_Chiralities_Consistent>
1

> <s_lp_Variant>
331-1

> <s_m_job_name>
ligprep_45

> <s_m_Source_Path>
/home/andre/Documents/projects/Esterase/data/FINAL_STUFF/Compounds/MAE_external

> <s_m_Source_File>
169.mae

> <i_m_Source_File_Index>
1

> <r_lp_tautomer_probability>
1

> <s_epik_Chemistry_Notes>
This compound has an ester and may undergo hydrolysis at high or low pH.

$$$$
