171
                    3D
 Schrodinger Suite 2021-1.
 88 91  0  0  1  0            999 V2000
   -5.5472    4.0880   -0.8006 C   0  0  0  0  0  0
   -4.8133    2.8679   -0.2343 C   0  0  0  0  0  0
   -3.3115    2.7983   -0.6027 C   0  0  1  0  0  0
   -2.5981    1.6390    0.1342 C   0  0  0  0  0  0
   -1.0523    1.6297    0.0344 C   0  0  1  0  0  0
   -0.4086    0.6407    1.0303 C   0  0  0  0  0  0
    1.1384    0.6705    1.0316 C   0  0  0  0  0  0
   -6.4266    3.9606   -1.6526 O   0  0  0  0  0  0
   -5.1062    5.2552   -0.2524 O   0  0  0  0  0  0
   -3.1688    2.6559   -2.0052 O   0  0  0  0  0  0
   -0.6426    1.3037   -1.2809 O   0  0  0  0  0  0
    1.6950   -0.2300    2.0504 N   0  0  0  0  0  0
    2.1712   -1.5073    1.8070 C   0  0  0  0  0  0
    2.6253   -2.0473    3.0071 C   0  0  0  0  0  0
    2.3548   -1.0950    4.0097 C   0  0  0  0  0  0
    1.8039    0.0459    3.4070 C   0  0  0  0  0  0
    0.4930    1.2649    5.2469 C   0  0  0  0  0  0
    1.3796    1.4029    3.9946 C   0  0  0  0  0  0
    2.6028    2.2973    4.2631 C   0  0  0  0  0  0
    2.6883   -1.2395    5.3971 C   0  0  0  0  0  0
    1.9092   -1.7935    6.1723 O   0  0  0  0  0  0
    3.9023   -0.7313    5.6964 N   0  0  0  0  0  0
    4.5561   -0.6841    6.9406 C   0  0  0  0  0  0
    5.9320   -0.4433    6.9021 C   0  0  0  0  0  0
    6.6653   -0.3756    8.0837 C   0  0  0  0  0  0
    6.0203   -0.5402    9.3067 C   0  0  0  0  0  0
    4.6473   -0.7671    9.3591 C   0  0  0  0  0  0
    3.9110   -0.8363    8.1791 C   0  0  0  0  0  0
    3.2534   -3.3959    3.1666 C   0  0  0  0  0  0
    4.5279   -3.5203    3.7283 C   0  0  0  0  0  0
    5.1087   -4.7776    3.8690 C   0  0  0  0  0  0
    4.4152   -5.9091    3.4452 C   0  0  0  0  0  0
    3.1469   -5.7942    2.8805 C   0  0  0  0  0  0
    2.5661   -4.5366    2.7402 C   0  0  0  0  0  0
    2.2158   -2.1297    0.4515 C   0  0  0  0  0  0
    1.0376   -2.5069   -0.1978 C   0  0  0  0  0  0
    1.0965   -3.0939   -1.4586 C   0  0  0  0  0  0
    2.3332   -3.3102   -2.0630 C   0  0  0  0  0  0
    3.5121   -2.9479   -1.4144 C   0  0  0  0  0  0
    3.4537   -2.3599   -0.1537 C   0  0  0  0  0  0
    2.3898   -3.8810   -3.2874 F   0  0  0  0  0  0
   -5.5852    6.5676   -0.5974 C   0  0  0  0  0  0
   -7.0901    6.7247   -0.2672 C   0  0  0  0  0  0
   -5.3072    6.8935   -2.0859 C   0  0  0  0  0  0
   -4.7635    7.5204    0.2949 C   0  0  0  0  0  0
   -4.9292    2.8844    0.8497 H   0  0  0  0  0  0
   -5.3181    1.9632   -0.5751 H   0  0  0  0  0  0
   -2.8299    3.7347   -0.3147 H   0  0  0  0  0  0
   -2.8605    1.7136    1.1909 H   0  0  0  0  0  0
   -3.0000    0.6795   -0.1971 H   0  0  0  0  0  0
   -0.6824    2.6311    0.2600 H   0  0  0  0  0  0
   -0.7759    0.8661    2.0318 H   0  0  0  0  0  0
   -0.7593   -0.3679    0.8133 H   0  0  0  0  0  0
    1.5288    0.3940    0.0519 H   0  0  0  0  0  0
    1.5199    1.6772    1.2053 H   0  0  0  0  0  0
   -3.5881    1.8354   -2.2738 H   0  0  0  0  0  0
   -0.9758    0.4302   -1.4979 H   0  0  0  0  0  0
   -0.3480    0.5949    5.0649 H   0  0  0  0  0  0
    0.0822    2.2314    5.5412 H   0  0  0  0  0  0
    1.0454    0.8851    6.1056 H   0  0  0  0  0  0
    0.7640    1.9561    3.2880 H   0  0  0  0  0  0
    3.1878    2.4502    3.3553 H   0  0  0  0  0  0
    3.2633    1.8670    5.0153 H   0  0  0  0  0  0
    2.2996    3.2803    4.6248 H   0  0  0  0  0  0
    4.4354   -0.3590    4.9244 H   0  0  0  0  0  0
    6.4422   -0.3151    5.9579 H   0  0  0  0  0  0
    7.7299   -0.1970    8.0520 H   0  0  0  0  0  0
    6.5896   -0.4871   10.2232 H   0  0  0  0  0  0
    4.1537   -0.8859   10.3124 H   0  0  0  0  0  0
    2.8466   -0.9941    8.2538 H   0  0  0  0  0  0
    5.0740   -2.6458    4.0497 H   0  0  0  0  0  0
    6.0929   -4.8748    4.3032 H   0  0  0  0  0  0
    4.8657   -6.8845    3.5547 H   0  0  0  0  0  0
    2.6161   -6.6765    2.5547 H   0  0  0  0  0  0
    1.5815   -4.4508    2.3033 H   0  0  0  0  0  0
    0.0789   -2.3596    0.2753 H   0  0  0  0  0  0
    0.1870   -3.3849   -1.9632 H   0  0  0  0  0  0
    4.4677   -3.1227   -1.8863 H   0  0  0  0  0  0
    4.3686   -2.0821    0.3495 H   0  0  0  0  0  0
   -7.4200    7.7560   -0.3995 H   0  0  0  0  0  0
   -7.3000    6.4436    0.7656 H   0  0  0  0  0  0
   -7.7190    6.1029   -0.9043 H   0  0  0  0  0  0
   -5.8963    6.2729   -2.7609 H   0  0  0  0  0  0
   -4.2575    6.7336   -2.3358 H   0  0  0  0  0  0
   -5.5441    7.9330   -2.3163 H   0  0  0  0  0  0
   -5.0318    8.5638    0.1234 H   0  0  0  0  0  0
   -3.6937    7.4220    0.1051 H   0  0  0  0  0  0
   -4.9203    7.3113    1.3542 H   0  0  0  0  0  0
  1  2  1  0  0  0
  1  9  1  0  0  0
  1  8  2  0  0  0
  2  3  1  0  0  0
  2 46  1  0  0  0
  2 47  1  0  0  0
  3  4  1  0  0  0
  3 10  1  0  0  0
  3 48  1  0  0  0
  4  5  1  0  0  0
  4 49  1  0  0  0
  4 50  1  0  0  0
  5  6  1  0  0  0
  5 11  1  0  0  0
  5 51  1  0  0  0
  6  7  1  0  0  0
  6 52  1  0  0  0
  6 53  1  0  0  0
  7 12  1  0  0  0
  7 54  1  0  0  0
  7 55  1  0  0  0
  9 42  1  0  0  0
 10 56  1  0  0  0
 11 57  1  0  0  0
 12 13  1  0  0  0
 12 16  1  0  0  0
 13 14  2  0  0  0
 13 35  1  0  0  0
 14 15  1  0  0  0
 14 29  1  0  0  0
 15 16  2  0  0  0
 15 20  1  0  0  0
 16 18  1  0  0  0
 17 18  1  0  0  0
 17 58  1  0  0  0
 17 59  1  0  0  0
 17 60  1  0  0  0
 18 19  1  0  0  0
 18 61  1  0  0  0
 19 62  1  0  0  0
 19 63  1  0  0  0
 19 64  1  0  0  0
 20 21  2  0  0  0
 20 22  1  0  0  0
 22 23  1  0  0  0
 22 65  1  0  0  0
 23 24  2  0  0  0
 23 28  1  0  0  0
 24 25  1  0  0  0
 24 66  1  0  0  0
 25 26  2  0  0  0
 25 67  1  0  0  0
 26 27  1  0  0  0
 26 68  1  0  0  0
 27 28  2  0  0  0
 27 69  1  0  0  0
 28 70  1  0  0  0
 29 30  2  0  0  0
 29 34  1  0  0  0
 30 31  1  0  0  0
 30 71  1  0  0  0
 31 32  2  0  0  0
 31 72  1  0  0  0
 32 33  1  0  0  0
 32 73  1  0  0  0
 33 34  2  0  0  0
 33 74  1  0  0  0
 34 75  1  0  0  0
 35 36  2  0  0  0
 35 40  1  0  0  0
 36 37  1  0  0  0
 36 76  1  0  0  0
 37 38  2  0  0  0
 37 77  1  0  0  0
 38 39  1  0  0  0
 38 41  1  0  0  0
 39 40  2  0  0  0
 39 78  1  0  0  0
 40 79  1  0  0  0
 42 43  1  0  0  0
 42 44  1  0  0  0
 42 45  1  0  0  0
 43 80  1  0  0  0
 43 81  1  0  0  0
 43 82  1  0  0  0
 44 83  1  0  0  0
 44 84  1  0  0  0
 44 85  1  0  0  0
 45 86  1  0  0  0
 45 87  1  0  0  0
 45 88  1  0  0  0
M  END
> <s_m_entry_id>
171

> <s_m_entry_name>
333.1

> <i_lp_mmshare_version>
47013

> <i_f3d_flags>
0

> <s_epik_input>
W0NIM11DKFtDSDNdKShbQ0gzXSlPQyg9TylbQ0gyXVtDQEhdKFtPSF0pW0NIMl1bQ0BIXShbT0hdKVtDSDJdW0NIMl1uMWMoLWMyW2NIXVtjSF1jKEYpW2NIXVtjSF0yKWMoLWMzW2NIXVtjSF1bY0hdW2NIXVtjSF0zKWMoYzFbQ0hdKFtDSDNdKVtDSDNdKUMoPU8pW05IXWM0W2NIXVtjSF1bY0hdW2NIXVtjSF00

> <s_epik_cmdline>
J2VwaWtfcHl0aG9uJywgJy1waCcsICc3LjQnLCAnLXRuJywgJzgnLCAnLW1hJywgJzIwMCcsICctaW1hZScsICc8aW5maWxlLm1hZT4nLCAnLW9tYWUnLCAnPG91dGZpbGUubWFlPic=

> <r_epik_Ionization_Penalty>
  0.0000

> <r_epik_Ionization_Penalty_Charging>
  0.0000

> <r_epik_Ionization_Penalty_Neutral>
  0.0000

> <r_epik_State_Penalty>
  0.0000

> <r_epik_Charging_Adjusted_Penalty>
0

> <i_epik_Tot_Q>
0

> <i_epik_Tot_abs_Q>
0

> <s_lp_Force_Field>
OPLS3e

> <r_lp_Energy>
43.476076

> <b_lp_Chiralities_Consistent>
1

> <s_lp_Variant>
333-1

> <s_m_job_name>
ligprep_47

> <s_m_Source_Path>
/home/andre/Documents/projects/Esterase/data/FINAL_STUFF/Compounds/MAE_external

> <s_m_Source_File>
171.mae

> <i_m_Source_File_Index>
1

> <r_lp_tautomer_probability>
1

> <s_epik_Chemistry_Notes>
This compound has an ester and may undergo hydrolysis at high or low pH.

$$$$
