175
                    3D
 Schrodinger Suite 2021-1.
 86 90  0  0  1  0            999 V2000
   -0.7925    6.2758   -1.7442 C   0  0  0  0  0  0
    0.2657    5.1669   -1.7356 C   0  0  0  0  0  0
   -0.1949    3.8512   -1.0628 C   0  0  1  0  0  0
    0.8622    2.7308   -1.2114 C   0  0  0  0  0  0
    0.3794    1.3022   -0.8496 C   0  0  1  0  0  0
    1.4168    0.1984   -1.1709 C   0  0  0  0  0  0
    2.7259    0.1538   -0.3354 C   0  0  0  0  0  0
   -0.6232    7.3177   -1.1068 O   0  0  0  0  0  0
   -1.8732    5.9528   -2.5073 O   0  0  0  0  0  0
   -0.4688    4.0836    0.3087 O   0  0  0  0  0  0
   -0.0440    1.2060    0.4953 O   0  0  0  0  0  0
    2.5349   -0.3816    1.0265 N   0  0  0  0  0  0
    2.2987   -1.7176    1.3112 C   0  0  0  0  0  0
    2.1523   -1.8605    2.6867 C   0  0  0  0  0  0
    2.2709   -0.5770    3.2463 C   0  0  0  0  0  0
    2.5098    0.3438    2.2142 C   0  0  0  0  0  0
    1.8944    2.6116    3.2861 C   0  0  0  0  0  0
    2.7519    1.8618    2.2472 C   0  0  0  0  0  0
    4.2481    2.1735    2.4240 C   0  0  0  0  0  0
    2.2593   -0.2976    4.6526 C   0  0  0  0  0  0
    1.1956   -0.1791    5.2598 O   0  0  0  0  0  0
    3.5048   -0.1949    5.1626 N   0  0  0  0  0  0
    3.9132    0.0523    6.4859 C   0  0  0  0  0  0
    5.2818    0.2704    6.6673 C   0  0  0  0  0  0
    5.7909    0.5189    7.9389 C   0  0  0  0  0  0
    4.9309    0.5452    9.0334 C   0  0  0  0  0  0
    3.5662    0.3242    8.8675 C   0  0  0  0  0  0
    3.0533    0.0760    7.5969 C   0  0  0  0  0  0
    1.9337   -3.1440    3.4175 C   0  0  0  0  0  0
    2.9439   -3.6562    4.2362 C   0  0  0  0  0  0
    2.7427   -4.8494    4.9247 C   0  0  0  0  0  0
    1.5319   -5.5260    4.7929 C   0  0  0  0  0  0
    0.5197   -5.0193    3.9806 C   0  0  0  0  0  0
    0.7202   -3.8252    3.2933 C   0  0  0  0  0  0
    2.2684   -2.7893    0.2732 C   0  0  0  0  0  0
    1.0560   -3.3887   -0.0766 C   0  0  0  0  0  0
    1.0306   -4.3976   -1.0355 C   0  0  0  0  0  0
    2.2177   -4.8065   -1.6398 C   0  0  0  0  0  0
    3.4306   -4.2152   -1.2914 C   0  0  0  0  0  0
    3.4567   -3.2067   -0.3317 C   0  0  0  0  0  0
    2.1926   -5.7855   -2.5721 F   0  0  0  0  0  0
   -2.9429    6.8168   -2.5717 C   0  0  0  0  0  0
   -3.1213    7.6036   -3.7124 C   0  0  0  0  0  0
   -4.2150    8.4610   -3.8004 C   0  0  0  0  0  0
   -5.1311    8.5218   -2.7518 C   0  0  0  0  0  0
   -4.9666    7.7299   -1.6171 C   0  0  0  0  0  0
   -3.8734    6.8722   -1.5279 C   0  0  0  0  0  0
    0.5555    4.9741   -2.7690 H   0  0  0  0  0  0
    1.1622    5.5399   -1.2388 H   0  0  0  0  0  0
   -1.1200    3.5152   -1.5350 H   0  0  0  0  0  0
    1.1819    2.7092   -2.2545 H   0  0  0  0  0  0
    1.7550    2.9961   -0.6473 H   0  0  0  0  0  0
   -0.5040    1.0945   -1.4553 H   0  0  0  0  0  0
    0.9181   -0.7688   -1.1136 H   0  0  0  0  0  0
    1.6935    0.2942   -2.2217 H   0  0  0  0  0  0
    3.4495   -0.4854   -0.8407 H   0  0  0  0  0  0
    3.2174    1.1233   -0.2987 H   0  0  0  0  0  0
    0.3348    4.3930    0.7335 H   0  0  0  0  0  0
   -0.6754    1.9094    0.6666 H   0  0  0  0  0  0
    0.8428    2.3316    3.2103 H   0  0  0  0  0  0
    1.9546    3.6896    3.1326 H   0  0  0  0  0  0
    2.2221    2.4247    4.3083 H   0  0  0  0  0  0
    2.4499    2.3046    1.3039 H   0  0  0  0  0  0
    4.8418    1.7421    1.6173 H   0  0  0  0  0  0
    4.6308    1.7776    3.3653 H   0  0  0  0  0  0
    4.4305    3.2488    2.4248 H   0  0  0  0  0  0
    4.2631   -0.2965    4.5044 H   0  0  0  0  0  0
    5.9587    0.2516    5.8247 H   0  0  0  0  0  0
    6.8485    0.6892    8.0759 H   0  0  0  0  0  0
    5.3259    0.7366   10.0203 H   0  0  0  0  0  0
    2.9070    0.3421    9.7228 H   0  0  0  0  0  0
    1.9937   -0.1010    7.5097 H   0  0  0  0  0  0
    3.8830   -3.1319    4.3392 H   0  0  0  0  0  0
    3.5211   -5.2477    5.5585 H   0  0  0  0  0  0
    1.3756   -6.4510    5.3280 H   0  0  0  0  0  0
   -0.4177   -5.5475    3.8876 H   0  0  0  0  0  0
   -0.0704   -3.4274    2.6743 H   0  0  0  0  0  0
    0.1338   -3.0683    0.3859 H   0  0  0  0  0  0
    0.0942   -4.8606   -1.3097 H   0  0  0  0  0  0
    4.3472   -4.5388   -1.7619 H   0  0  0  0  0  0
    4.3982   -2.7525   -0.0586 H   0  0  0  0  0  0
   -2.4124    7.5518   -4.5259 H   0  0  0  0  0  0
   -4.3536    9.0745   -4.6784 H   0  0  0  0  0  0
   -5.9795    9.1867   -2.8208 H   0  0  0  0  0  0
   -5.6848    7.7784   -0.8119 H   0  0  0  0  0  0
   -3.7455    6.2535   -0.6515 H   0  0  0  0  0  0
  1  2  1  0  0  0
  1  9  1  0  0  0
  1  8  2  0  0  0
  2  3  1  0  0  0
  2 48  1  0  0  0
  2 49  1  0  0  0
  3  4  1  0  0  0
  3 10  1  0  0  0
  3 50  1  0  0  0
  4  5  1  0  0  0
  4 51  1  0  0  0
  4 52  1  0  0  0
  5  6  1  0  0  0
  5 11  1  0  0  0
  5 53  1  0  0  0
  6  7  1  0  0  0
  6 54  1  0  0  0
  6 55  1  0  0  0
  7 12  1  0  0  0
  7 56  1  0  0  0
  7 57  1  0  0  0
  9 42  1  0  0  0
 10 58  1  0  0  0
 11 59  1  0  0  0
 12 13  1  0  0  0
 12 16  1  0  0  0
 13 14  2  0  0  0
 13 35  1  0  0  0
 14 15  1  0  0  0
 14 29  1  0  0  0
 15 16  2  0  0  0
 15 20  1  0  0  0
 16 18  1  0  0  0
 17 18  1  0  0  0
 17 60  1  0  0  0
 17 61  1  0  0  0
 17 62  1  0  0  0
 18 19  1  0  0  0
 18 63  1  0  0  0
 19 64  1  0  0  0
 19 65  1  0  0  0
 19 66  1  0  0  0
 20 21  2  0  0  0
 20 22  1  0  0  0
 22 23  1  0  0  0
 22 67  1  0  0  0
 23 24  2  0  0  0
 23 28  1  0  0  0
 24 25  1  0  0  0
 24 68  1  0  0  0
 25 26  2  0  0  0
 25 69  1  0  0  0
 26 27  1  0  0  0
 26 70  1  0  0  0
 27 28  2  0  0  0
 27 71  1  0  0  0
 28 72  1  0  0  0
 29 30  2  0  0  0
 29 34  1  0  0  0
 30 31  1  0  0  0
 30 73  1  0  0  0
 31 32  2  0  0  0
 31 74  1  0  0  0
 32 33  1  0  0  0
 32 75  1  0  0  0
 33 34  2  0  0  0
 33 76  1  0  0  0
 34 77  1  0  0  0
 35 36  2  0  0  0
 35 40  1  0  0  0
 36 37  1  0  0  0
 36 78  1  0  0  0
 37 38  2  0  0  0
 37 79  1  0  0  0
 38 39  1  0  0  0
 38 41  1  0  0  0
 39 40  2  0  0  0
 39 80  1  0  0  0
 40 81  1  0  0  0
 42 43  2  0  0  0
 42 47  1  0  0  0
 43 44  1  0  0  0
 43 82  1  0  0  0
 44 45  2  0  0  0
 44 83  1  0  0  0
 45 46  1  0  0  0
 45 84  1  0  0  0
 46 47  2  0  0  0
 46 85  1  0  0  0
 47 86  1  0  0  0
M  END
> <s_m_entry_id>
175

> <s_m_entry_name>
337.1

> <i_lp_mmshare_version>
47013

> <i_f3d_flags>
0

> <s_epik_input>
W2NIXTFbY0hdW2NIXVtjSF1bY0hdYzFPQyg9TylbQ0gyXVtDQEhdKFtPSF0pW0NIMl1bQ0BIXShbT0hdKVtDSDJdW0NIMl1uMmMoLWMzW2NIXVtjSF1jKEYpW2NIXVtjSF0zKWMoLWM0W2NIXVtjSF1bY0hdW2NIXVtjSF00KWMoYzJbQ0hdKFtDSDNdKVtDSDNdKUMoPU8pW05IXWM1W2NIXVtjSF1bY0hdW2NIXVtjSF01

> <s_epik_cmdline>
J2VwaWtfcHl0aG9uJywgJy1waCcsICc3LjQnLCAnLXRuJywgJzgnLCAnLW1hJywgJzIwMCcsICctaW1hZScsICc8aW5maWxlLm1hZT4nLCAnLW9tYWUnLCAnPG91dGZpbGUubWFlPic=

> <r_epik_Ionization_Penalty>
  0.0000

> <r_epik_Ionization_Penalty_Charging>
  0.0000

> <r_epik_Ionization_Penalty_Neutral>
  0.0000

> <r_epik_State_Penalty>
  0.0000

> <r_epik_Charging_Adjusted_Penalty>
0

> <i_epik_Tot_Q>
0

> <i_epik_Tot_abs_Q>
0

> <s_lp_Force_Field>
OPLS3e

> <r_lp_Energy>
58.618515

> <b_lp_Chiralities_Consistent>
1

> <s_lp_Variant>
337-1

> <s_m_job_name>
ligprep_51

> <s_m_Source_Path>
/home/andre/Documents/projects/Esterase/data/FINAL_STUFF/Compounds/MAE_external

> <s_m_Source_File>
175.mae

> <i_m_Source_File_Index>
1

> <r_lp_tautomer_probability>
1

$$$$
