18
                    3D
 Schrodinger Suite 2021-1.
 46 48  0  0  1  0            999 V2000
   -1.7668    5.6886   -0.5771 Cl  0  0  0  0  0  0
   -2.4366    4.0551   -0.5614 C   0  0  0  0  0  0
   -3.5066    3.6635   -1.9137 Cl  0  0  0  0  0  0
   -2.1366    3.1875    0.4214 C   0  0  0  0  0  0
   -2.6599    1.7570    0.5383 C   0  0  1  0  0  0
   -1.7692    0.5783    1.0112 C   0  0  2  0  0  0
   -2.8986    1.1225    1.8821 C   0  0  0  0  0  0
   -2.6127    1.8841    3.2004 C   0  0  0  0  0  0
   -4.1210    0.1955    2.0179 C   0  0  0  0  0  0
   -0.2751    0.7593    1.3549 C   0  0  0  0  0  0
    0.1947    1.7893    1.8406 O   0  0  0  0  0  0
    0.4361   -0.3477    1.0343 O   0  0  0  0  0  0
    1.8407   -0.4598    1.2754 C   0  0  1  0  0  0
    2.2347   -0.1944    2.6766 C   0  0  0  0  0  0
    2.5428    0.0132    3.7727 N   0  0  0  0  0  0
    2.2993   -1.8321    0.7963 C   0  0  0  0  0  0
    2.8050   -1.9711   -0.4974 C   0  0  0  0  0  0
    2.1969   -2.9515    1.6249 C   0  0  0  0  0  0
    2.6023   -4.2078    1.1831 C   0  0  0  0  0  0
    3.1217   -4.3744   -0.1239 C   0  0  0  0  0  0
    3.2232   -3.2365   -0.9786 C   0  0  0  0  0  0
    3.5399   -5.6402   -0.6052 C   0  0  0  0  0  0
    4.0469   -5.7841   -1.9057 C   0  0  0  0  0  0
    4.1378   -4.6625   -2.7271 C   0  0  0  0  0  0
    3.7378   -3.4046   -2.2857 C   0  0  0  0  0  0
    4.4723   -6.9816   -2.4481 O   0  0  0  0  0  0
    4.4035   -8.1654   -1.6601 C   0  0  0  0  0  0
   -1.4738    3.5343    1.1979 H   0  0  0  0  0  0
   -3.3817    1.4893   -0.2340 H   0  0  0  0  0  0
   -1.9419   -0.3874    0.5344 H   0  0  0  0  0  0
   -2.4147    1.1857    4.0140 H   0  0  0  0  0  0
   -3.4743    2.4877    3.4869 H   0  0  0  0  0  0
   -1.7648    2.5627    3.1537 H   0  0  0  0  0  0
   -3.9710   -0.5375    2.8113 H   0  0  0  0  0  0
   -4.3224   -0.3595    1.1004 H   0  0  0  0  0  0
   -5.0196    0.7659    2.2545 H   0  0  0  0  0  0
    2.3482    0.2953    0.6727 H   0  0  0  0  0  0
    2.8791   -1.1115   -1.1486 H   0  0  0  0  0  0
    1.7958   -2.8525    2.6233 H   0  0  0  0  0  0
    2.5182   -5.0636    1.8372 H   0  0  0  0  0  0
    3.4548   -6.4882    0.0579 H   0  0  0  0  0  0
    4.5268   -4.7680   -3.7295 H   0  0  0  0  0  0
    3.8184   -2.5498   -2.9419 H   0  0  0  0  0  0
    4.7770   -9.0075   -2.2427 H   0  0  0  0  0  0
    3.3769   -8.3946   -1.3705 H   0  0  0  0  0  0
    5.0200   -8.0857   -0.7633 H   0  0  0  0  0  0
  1  2  1  0  0  0
  2  3  1  0  0  0
  2  4  2  0  0  0
  4  5  1  0  0  0
  4 28  1  0  0  0
  5  7  1  0  0  0
  5  6  1  0  0  0
  5 29  1  0  0  0
  6  7  1  0  0  0
  6 10  1  0  0  0
  6 30  1  0  0  0
  7  8  1  0  0  0
  7  9  1  0  0  0
  8 31  1  0  0  0
  8 32  1  0  0  0
  8 33  1  0  0  0
  9 34  1  0  0  0
  9 35  1  0  0  0
  9 36  1  0  0  0
 10 11  2  0  0  0
 10 12  1  0  0  0
 12 13  1  0  0  0
 13 14  1  0  0  0
 13 16  1  0  0  0
 13 37  1  0  0  0
 14 15  3  0  0  0
 16 17  2  0  0  0
 16 18  1  0  0  0
 17 21  1  0  0  0
 17 38  1  0  0  0
 18 19  2  0  0  0
 18 39  1  0  0  0
 19 20  1  0  0  0
 19 40  1  0  0  0
 20 21  2  0  0  0
 20 22  1  0  0  0
 21 25  1  0  0  0
 22 23  2  0  0  0
 22 41  1  0  0  0
 23 24  1  0  0  0
 23 26  1  0  0  0
 24 25  2  0  0  0
 24 42  1  0  0  0
 25 43  1  0  0  0
 26 27  1  0  0  0
 27 44  1  0  0  0
 27 45  1  0  0  0
 27 46  1  0  0  0
M  END
> <s_m_entry_id>
18

> <s_m_entry_name>
entry

> <i_lp_mmshare_version>
47013

> <i_f3d_flags>
0

> <s_epik_input>
Q2xDKENsKT1bQ0hdW0NASF0oQzEoW0NIM10pW0NIM10pW0NASF0xQyg9TylPW0NAQEhdKEMjTiljKFtjSF1bY0hdMilbY0hdYyhjMjMpW2NIXVtjSF1jKFtjSF0zKU9bQ0gzXQ==

> <s_epik_cmdline>
J2VwaWtfcHl0aG9uJywgJy1waCcsICc3LjQnLCAnLXRuJywgJzgnLCAnLW1hJywgJzIwMCcsICctaW1hZScsICc8aW5maWxlLm1hZT4nLCAnLW9tYWUnLCAnPG91dGZpbGUubWFlPic=

> <r_epik_Ionization_Penalty>
  0.0000

> <r_epik_Ionization_Penalty_Charging>
  0.0000

> <r_epik_Ionization_Penalty_Neutral>
  0.0000

> <r_epik_State_Penalty>
  0.0000

> <r_epik_Charging_Adjusted_Penalty>
0

> <i_epik_Tot_Q>
0

> <i_epik_Tot_abs_Q>
0

> <s_lp_Force_Field>
OPLS3e

> <r_lp_Energy>
38.417778

> <b_lp_Chiralities_Consistent>
1

> <s_lp_Variant>
M1-1

> <s_m_job_name>
ligprep_124

> <s_m_Source_Path>
/home/andre/Documents/projects/Esterase/data/FINAL_STUFF/Compounds/MAE_external

> <s_m_Source_File>
18.mae

> <i_m_Source_File_Index>
1

> <r_lp_tautomer_probability>
1

> <s_epik_Chemistry_Notes>
This compound has an ester and may undergo hydrolysis at high or low pH.

$$$$
