180
                    3D
 Schrodinger Suite 2021-1.
 73 76  0  0  1  0            999 V2000
  -10.2162    0.0056    2.9627 C   0  0  0  0  0  0
   -9.1585    0.6291    2.2901 C   0  0  0  0  0  0
   -8.7359    1.8964    2.7096 C   0  0  0  0  0  0
   -9.3496    2.5242    3.7901 C   0  0  0  0  0  0
  -10.3949    1.8875    4.4538 C   0  0  0  0  0  0
  -10.8321    0.6308    4.0438 C   0  0  0  0  0  0
   -8.5138   -0.0397    1.1272 C   0  0  0  0  0  0
   -9.3060   -0.3792    0.0237 C   0  0  0  0  0  0
   -8.7523   -0.9903   -1.0969 C   0  0  0  0  0  0
   -7.3916   -1.2756   -1.1294 C   0  0  0  0  0  0
   -6.5761   -0.9586   -0.0398 C   0  0  0  0  0  0
   -7.1374   -0.3443    1.0949 C   0  0  0  0  0  0
   -5.0913   -1.2952   -0.1063 C   0  0  0  0  0  0
   -4.3395   -0.0846   -0.1135 O   0  0  0  0  0  0
   -6.0260    0.0343    2.6091 Br  0  0  0  0  0  0
   -2.9587   -0.1317   -0.0524 C   0  0  0  0  0  0
   -2.2774    1.0869    0.0385 C   0  0  0  0  0  0
   -0.8862    1.1153    0.1117 C   0  0  0  0  0  0
   -0.1500   -0.0709    0.0960 C   0  0  0  0  0  0
   -0.8089   -1.3049   -0.0025 C   0  0  0  0  0  0
   -2.2124   -1.3221   -0.0724 C   0  0  0  0  0  0
   -0.0228   -2.4428   -0.0267 O   0  0  0  0  0  0
   -3.1468    2.5817    0.0686 Cl  0  0  0  0  0  0
   -0.6283   -3.7254   -0.1655 C   0  0  0  0  0  0
    0.4563   -4.7864   -0.2573 C   0  0  0  0  0  0
    1.5717   -4.6061   -1.0842 C   0  0  0  0  0  0
    2.5523   -5.5974   -1.1496 C   0  0  0  0  0  0
    2.3829   -6.7515   -0.3827 C   0  0  0  0  0  0
    1.3076   -6.9519    0.4217 N   0  0  0  0  0  0
    0.3646   -5.9759    0.4740 C   0  0  0  0  0  0
    1.3690   -0.0044    0.1776 C   0  0  0  0  0  0
    1.9561   -0.1280   -1.1487 N   0  0  1  0  0  0
    3.4346   -0.0782   -1.1202 C   0  0  1  0  0  0
    4.0716   -1.4845   -1.2962 C   0  0  0  0  0  0
    3.9081    0.9528   -2.1329 C   0  0  0  0  0  0
    3.7761   -2.0991   -2.5387 O   0  0  0  0  0  0
    3.6285    2.2148   -1.7126 O   0  0  0  0  0  0
    4.4889    0.6710   -3.1846 O   0  0  0  0  0  0
    3.9401    3.3630   -2.5015 C   0  0  0  0  0  0
    4.0063    4.5736   -1.5584 C   0  0  0  0  0  0
    2.8938    3.5631   -3.6158 C   0  0  0  0  0  0
  -10.5600   -0.9698    2.6501 H   0  0  0  0  0  0
   -7.9291    2.3984    2.1950 H   0  0  0  0  0  0
   -9.0177    3.5007    4.1107 H   0  0  0  0  0  0
  -10.8721    2.3736    5.2920 H   0  0  0  0  0  0
  -11.6453    0.1435    4.5613 H   0  0  0  0  0  0
  -10.3640   -0.1581    0.0289 H   0  0  0  0  0  0
   -9.3776   -1.2390   -1.9418 H   0  0  0  0  0  0
   -6.9743   -1.7473   -2.0071 H   0  0  0  0  0  0
   -4.8341   -1.9168    0.7535 H   0  0  0  0  0  0
   -4.8689   -1.8750   -1.0045 H   0  0  0  0  0  0
   -0.3761    2.0654    0.1805 H   0  0  0  0  0  0
   -2.7263   -2.2667   -0.1457 H   0  0  0  0  0  0
   -1.2780   -3.9238    0.6894 H   0  0  0  0  0  0
   -1.2332   -3.7751   -1.0725 H   0  0  0  0  0  0
    1.6789   -3.7052   -1.6706 H   0  0  0  0  0  0
    3.4209   -5.4728   -1.7796 H   0  0  0  0  0  0
    3.1195   -7.5410   -0.4071 H   0  0  0  0  0  0
   -0.4779   -6.1661    1.1229 H   0  0  0  0  0  0
    1.6711    0.9409    0.6317 H   0  0  0  0  0  0
    1.7326   -0.8026    0.8269 H   0  0  0  0  0  0
    1.6604   -1.0109   -1.5420 H   0  0  0  0  0  0
    3.7791    0.2719   -0.1450 H   0  0  0  0  0  0
    5.1561   -1.4236   -1.1966 H   0  0  0  0  0  0
    3.7326   -2.1490   -0.5004 H   0  0  0  0  0  0
    4.2005   -1.5914   -3.2353 H   0  0  0  0  0  0
    4.9261    3.2385   -2.9532 H   0  0  0  0  0  0
    4.2533    5.4845   -2.1045 H   0  0  0  0  0  0
    4.7722    4.4341   -0.7946 H   0  0  0  0  0  0
    3.0554    4.7377   -1.0496 H   0  0  0  0  0  0
    3.1159    4.4521   -4.2066 H   0  0  0  0  0  0
    1.8909    3.6795   -3.2028 H   0  0  0  0  0  0
    2.8732    2.7153   -4.3011 H   0  0  0  0  0  0
  1  2  2  0  0  0
  1  6  1  0  0  0
  1 42  1  0  0  0
  2  3  1  0  0  0
  2  7  1  0  0  0
  3  4  2  0  0  0
  3 43  1  0  0  0
  4  5  1  0  0  0
  4 44  1  0  0  0
  5  6  2  0  0  0
  5 45  1  0  0  0
  6 46  1  0  0  0
  7 12  2  0  0  0
  7  8  1  0  0  0
  8  9  2  0  0  0
  8 47  1  0  0  0
  9 10  1  0  0  0
  9 48  1  0  0  0
 10 11  2  0  0  0
 10 49  1  0  0  0
 11 12  1  0  0  0
 11 13  1  0  0  0
 12 15  1  0  0  0
 13 14  1  0  0  0
 13 50  1  0  0  0
 13 51  1  0  0  0
 14 16  1  0  0  0
 16 21  2  0  0  0
 16 17  1  0  0  0
 17 18  2  0  0  0
 17 23  1  0  0  0
 18 19  1  0  0  0
 18 52  1  0  0  0
 19 20  2  0  0  0
 19 31  1  0  0  0
 20 21  1  0  0  0
 20 22  1  0  0  0
 21 53  1  0  0  0
 22 24  1  0  0  0
 24 25  1  0  0  0
 24 54  1  0  0  0
 24 55  1  0  0  0
 25 30  2  0  0  0
 25 26  1  0  0  0
 26 27  2  0  0  0
 26 56  1  0  0  0
 27 28  1  0  0  0
 27 57  1  0  0  0
 28 29  2  0  0  0
 28 58  1  0  0  0
 29 30  1  0  0  0
 30 59  1  0  0  0
 31 32  1  0  0  0
 31 60  1  0  0  0
 31 61  1  0  0  0
 32 33  1  0  0  0
 32 62  1  0  0  0
 33 34  1  0  0  0
 33 35  1  0  0  0
 33 63  1  0  0  0
 34 36  1  0  0  0
 34 64  1  0  0  0
 34 65  1  0  0  0
 35 37  1  0  0  0
 35 38  2  0  0  0
 36 66  1  0  0  0
 37 39  1  0  0  0
 39 40  1  0  0  0
 39 41  1  0  0  0
 39 67  1  0  0  0
 40 68  1  0  0  0
 40 69  1  0  0  0
 40 70  1  0  0  0
 41 71  1  0  0  0
 41 72  1  0  0  0
 41 73  1  0  0  0
M  END
> <s_m_entry_id>
180

> <s_m_entry_name>
entry

> <i_lp_mmshare_version>
47013

> <i_f3d_flags>
0

> <s_epik_input>
W2NIXTFbY0hdW2NIXVtjSF1bY0hdYzEtYzJbY0hdW2NIXVtjSF1jKGMyQnIpW0NIMl1PYzNjKENsKVtjSF1jKFtDSDJdW05IXVtDQEBIXShbQ0gyXVtPSF0pQyg9TylPW0NIXShbQ0gzXSlbQ0gzXSljKFtjSF0zKU9bQ0gyXWM0W2NIXVtjSF1bY0hdbltjSF00

> <s_epik_cmdline>
J2VwaWtfcHl0aG9uJywgJy1waCcsICc3LjQnLCAnLXRuJywgJzgnLCAnLW1hJywgJzIwMCcsICctaW1hZScsICc8aW5maWxlLm1hZT4nLCAnLW9tYWUnLCAnPG91dGZpbGUubWFlPic=

> <r_epik_Ionization_Penalty>
  0.1947

> <r_epik_Ionization_Penalty_Charging>
  0.0000

> <r_epik_Ionization_Penalty_Neutral>
  0.1947

> <r_epik_State_Penalty>
  0.1828

> <r_epik_Charging_Adjusted_Penalty>
0.182806047415942

> <i_epik_Tot_Q>
0

> <i_epik_Tot_abs_Q>
0

> <s_lp_Force_Field>
OPLS3e

> <r_lp_Energy>
55.036226

> <b_lp_Chiralities_Consistent>
1

> <s_lp_Variant>
342-1

> <s_m_job_name>
ligprep_57

> <s_m_Source_Path>
/home/andre/Documents/projects/Esterase/data/FINAL_STUFF/Compounds/MAE_external

> <s_m_Source_File>
180.mae

> <i_m_Source_File_Index>
1

> <r_lp_tautomer_probability>
1

> <s_epik_Chemistry_Notes>
This compound has an ester and may undergo hydrolysis at high or low pH.

$$$$
