181
                    3D
 Schrodinger Suite 2021-1.
 62 63  0  0  1  0            999 V2000
   -2.8005    0.6971    1.1163 C   0  0  0  0  0  0
   -2.3716    0.9910    2.4180 C   0  0  0  0  0  0
   -2.9624    0.3781    3.5192 C   0  0  0  0  0  0
   -3.9957   -0.5342    3.3275 C   0  0  0  0  0  0
   -4.4394   -0.8391    2.0441 C   0  0  0  0  0  0
   -3.8457   -0.2273    0.9434 C   0  0  0  0  0  0
   -2.1001    1.4022   -0.0451 C   0  0  1  0  0  0
   -0.6540    1.0951   -0.1068 N   0  0  0  0  0  0
   -2.7868    1.2864   -1.4136 C   0  0  0  0  0  0
   -2.1173    0.5436   -2.3405 O   0  0  0  0  0  0
   -3.8801    1.8194   -1.6192 O   0  0  0  0  0  0
   -2.6225    0.3877   -3.6697 C   0  0  0  0  0  0
   -1.8506   -0.7576   -4.3576 C   0  0  0  0  0  0
   -1.4039   -0.2188   -5.7184 C   0  0  0  0  0  0
   -1.2159    1.2755   -5.4798 C   0  0  0  0  0  0
   -2.3622    1.6435   -4.5354 C   0  0  0  0  0  0
   -0.0501   -0.1113   -0.0704 C   0  0  0  0  0  0
    1.4962   -0.0989    0.0056 C   0  0  1  0  0  0
   -0.6684   -1.1765   -0.0502 O   0  0  0  0  0  0
    1.9699   -0.1662    1.4979 C   0  0  1  0  0  0
    2.1603   -1.1987   -0.8862 C   0  0  0  0  0  0
    3.4873    0.0949    1.6507 C   0  0  0  0  0  0
    1.2555    0.8116    2.2693 O   0  0  0  0  0  0
    1.1990    0.5803    3.6732 C   0  0  0  0  0  0
    4.2620   -0.9884    1.8382 N   0  0  0  0  0  0
    3.9208    1.2491    1.6015 O   0  0  0  0  0  0
    5.6484   -0.8086    1.8064 O   0  0  0  0  0  0
    1.7024   -1.3010   -2.3651 C   0  0  0  0  0  0
    2.4509   -2.4289   -3.0981 C   0  0  0  0  0  0
    1.8321    0.0290   -3.1331 C   0  0  0  0  0  0
   -1.5688    1.6963    2.5778 H   0  0  0  0  0  0
   -2.6200    0.6093    4.5172 H   0  0  0  0  0  0
   -4.4562   -1.0101    4.1807 H   0  0  0  0  0  0
   -5.2399   -1.5501    1.9019 H   0  0  0  0  0  0
   -4.2037   -0.4922   -0.0400 H   0  0  0  0  0  0
   -2.1234    2.4714    0.1717 H   0  0  0  0  0  0
   -0.0582    1.9104   -0.1068 H   0  0  0  0  0  0
   -3.6824    0.1272   -3.6403 H   0  0  0  0  0  0
   -0.9737   -1.0508   -3.7824 H   0  0  0  0  0  0
   -2.4705   -1.6476   -4.4702 H   0  0  0  0  0  0
   -0.4939   -0.7006   -6.0782 H   0  0  0  0  0  0
   -2.1833   -0.3846   -6.4643 H   0  0  0  0  0  0
   -0.2543    1.4629   -4.9989 H   0  0  0  0  0  0
   -1.2398    1.8504   -6.4062 H   0  0  0  0  0  0
   -3.2604    1.9079   -5.0945 H   0  0  0  0  0  0
   -2.0701    2.5123   -3.9434 H   0  0  0  0  0  0
    1.8237    0.8651   -0.3909 H   0  0  0  0  0  0
    1.7275   -1.1648    1.8729 H   0  0  0  0  0  0
    3.2402   -1.0445   -0.8881 H   0  0  0  0  0  0
    2.0055   -2.1705   -0.4132 H   0  0  0  0  0  0
    0.6213    1.3740    4.1467 H   0  0  0  0  0  0
    2.1907    0.5748    4.1267 H   0  0  0  0  0  0
    0.7061   -0.3671    3.8954 H   0  0  0  0  0  0
    3.9883   -1.9451    1.6647 H   0  0  0  0  0  0
    5.7475    0.0354    1.3580 H   0  0  0  0  0  0
    0.6510   -1.5838   -2.3673 H   0  0  0  0  0  0
    3.5206   -2.2248   -3.1600 H   0  0  0  0  0  0
    2.0783   -2.5541   -4.1157 H   0  0  0  0  0  0
    2.3240   -3.3847   -2.5883 H   0  0  0  0  0  0
    2.8587    0.3965   -3.1254 H   0  0  0  0  0  0
    1.1958    0.8042   -2.7061 H   0  0  0  0  0  0
    1.5309   -0.0882   -4.1746 H   0  0  0  0  0  0
  1  2  2  0  0  0
  1  6  1  0  0  0
  1  7  1  0  0  0
  2  3  1  0  0  0
  2 31  1  0  0  0
  3  4  2  0  0  0
  3 32  1  0  0  0
  4  5  1  0  0  0
  4 33  1  0  0  0
  5  6  2  0  0  0
  5 34  1  0  0  0
  6 35  1  0  0  0
  7  8  1  0  0  0
  7  9  1  0  0  0
  7 36  1  0  0  0
  8 17  1  0  0  0
  8 37  1  0  0  0
  9 10  1  0  0  0
  9 11  2  0  0  0
 10 12  1  0  0  0
 12 16  1  0  0  0
 12 13  1  0  0  0
 12 38  1  0  0  0
 13 14  1  0  0  0
 13 39  1  0  0  0
 13 40  1  0  0  0
 14 15  1  0  0  0
 14 41  1  0  0  0
 14 42  1  0  0  0
 15 16  1  0  0  0
 15 43  1  0  0  0
 15 44  1  0  0  0
 16 45  1  0  0  0
 16 46  1  0  0  0
 17 18  1  0  0  0
 17 19  2  0  0  0
 18 20  1  0  0  0
 18 21  1  0  0  0
 18 47  1  0  0  0
 20 22  1  0  0  0
 20 23  1  0  0  0
 20 48  1  0  0  0
 21 28  1  0  0  0
 21 49  1  0  0  0
 21 50  1  0  0  0
 22 25  1  0  0  0
 22 26  2  0  0  0
 23 24  1  0  0  0
 24 51  1  0  0  0
 24 52  1  0  0  0
 24 53  1  0  0  0
 25 27  1  0  0  0
 25 54  1  0  0  0
 27 55  1  0  0  0
 28 29  1  0  0  0
 28 30  1  0  0  0
 28 56  1  0  0  0
 29 57  1  0  0  0
 29 58  1  0  0  0
 29 59  1  0  0  0
 30 60  1  0  0  0
 30 61  1  0  0  0
 30 62  1  0  0  0
M  END
> <s_m_entry_id>
181

> <s_m_entry_name>
entry

> <i_lp_mmshare_version>
47013

> <i_f3d_flags>
0

> <s_epik_input>
W09IXVtOSF1DKD1PKVtDQEBIXShPW0NIM10pW0NAQEhdKFtDSDJdW0NIXShbQ0gzXSlbQ0gzXSlDKD1PKVtOSF1bQ0BIXShjMVtjSF1bY0hdW2NIXVtjSF1bY0hdMSlDKD1PKU9bQ0hdMltDSDJdW0NIMl1bQ0gyXVtDSDJdMg==

> <s_epik_cmdline>
J2VwaWtfcHl0aG9uJywgJy1waCcsICc3LjQnLCAnLXRuJywgJzgnLCAnLW1hJywgJzIwMCcsICctaW1hZScsICc8aW5maWxlLm1hZT4nLCAnLW9tYWUnLCAnPG91dGZpbGUubWFlPic=

> <r_epik_Ionization_Penalty>
  0.0372

> <r_epik_Ionization_Penalty_Charging>
  0.0000

> <r_epik_Ionization_Penalty_Neutral>
  0.0372

> <r_epik_State_Penalty>
  0.0311

> <r_epik_Charging_Adjusted_Penalty>
0.0311086485401532

> <i_epik_Tot_Q>
0

> <i_epik_Tot_abs_Q>
0

> <s_lp_Force_Field>
OPLS3e

> <r_lp_Energy>
40.899607

> <b_lp_Chiralities_Consistent>
1

> <s_lp_Variant>
343-1

> <s_m_job_name>
ligprep_57

> <s_m_Source_Path>
/home/andre/Documents/projects/Esterase/data/FINAL_STUFF/Compounds/MAE_external

> <s_m_Source_File>
181.mae

> <i_m_Source_File_Index>
1

> <s_epik_Chemistry_Notes>
This compound has an ester and may undergo hydrolysis at high or low pH. This compound has a N-S or N-O group and may undergo hydrolysis at high or low pH.

$$$$
