22
                    3D
 Schrodinger Suite 2021-1.
 52 54  0  0  1  0            999 V2000
   -0.8379   -5.7574    0.6070 C   0  0  0  0  0  0
   -2.0211   -6.2092    1.1879 C   0  0  0  0  0  0
   -3.2575   -5.8397    0.6620 C   0  0  0  0  0  0
   -3.3112   -5.0058   -0.4519 C   0  0  0  0  0  0
   -2.1312   -4.5365   -1.0305 C   0  0  0  0  0  0
   -0.8919   -4.9241   -0.5073 C   0  0  0  0  0  0
   -2.2203   -3.7247   -2.1398 O   0  0  0  0  0  0
   -1.5726   -2.5061   -2.1904 C   0  0  0  0  0  0
   -1.2526   -1.9921   -3.4490 C   0  0  0  0  0  0
   -0.6183   -0.7562   -3.5708 C   0  0  0  0  0  0
   -0.3059   -0.0169   -2.4311 C   0  0  0  0  0  0
   -0.6346   -0.5065   -1.1624 C   0  0  0  0  0  0
   -1.2684   -1.7477   -1.0484 C   0  0  0  0  0  0
   -0.2964    0.2886    0.0910 C   0  0  1  0  0  0
    1.1085    0.1862    0.3268 O   0  0  0  0  0  0
   -0.7821    1.6821   -0.0007 C   0  0  0  0  0  0
    1.7046    0.7648    1.3964 C   0  0  0  0  0  0
    3.2376    0.5914    1.3756 C   0  0  2  0  0  0
    1.1270    1.3486    2.3167 O   0  0  0  0  0  0
   -1.1619    2.7731   -0.0729 N   0  0  0  0  0  0
    3.8546    0.1990    2.7595 C   0  0  0  0  0  0
    5.3936    0.0927    2.6982 C   0  0  0  0  0  0
    3.2739   -1.1192    3.3197 C   0  0  0  0  0  0
    3.8216    1.8685    0.7553 C   0  0  0  0  0  0
    4.2220    1.8519   -0.5848 C   0  0  0  0  0  0
    4.7475    2.9987   -1.1736 C   0  0  0  0  0  0
    4.8734    4.1660   -0.4228 C   0  0  0  0  0  0
    4.4755    4.1949    0.9123 C   0  0  0  0  0  0
    3.9486    3.0487    1.5008 C   0  0  0  0  0  0
    5.5244    5.5878   -1.1532 Cl  0  0  0  0  0  0
    0.1162   -6.0541    1.0173 H   0  0  0  0  0  0
   -1.9798   -6.8559    2.0522 H   0  0  0  0  0  0
   -4.1695   -6.1991    1.1151 H   0  0  0  0  0  0
   -4.2678   -4.7186   -0.8635 H   0  0  0  0  0  0
    0.0244   -4.5771   -0.9625 H   0  0  0  0  0  0
   -1.4943   -2.5567   -4.3377 H   0  0  0  0  0  0
   -0.3698   -0.3710   -4.5488 H   0  0  0  0  0  0
    0.1898    0.9375   -2.5354 H   0  0  0  0  0  0
   -1.5283   -2.1209   -0.0685 H   0  0  0  0  0  0
   -0.8188   -0.1630    0.9362 H   0  0  0  0  0  0
    3.4626   -0.2320    0.6954 H   0  0  0  0  0  0
    3.6184    0.9797    3.4845 H   0  0  0  0  0  0
    5.7121   -0.6585    1.9743 H   0  0  0  0  0  0
    5.8106   -0.1843    3.6672 H   0  0  0  0  0  0
    5.8554    1.0391    2.4167 H   0  0  0  0  0  0
    3.4532   -1.9528    2.6396 H   0  0  0  0  0  0
    2.1986   -1.0539    3.4864 H   0  0  0  0  0  0
    3.7250   -1.3742    4.2794 H   0  0  0  0  0  0
    4.1243    0.9512   -1.1732 H   0  0  0  0  0  0
    5.0542    2.9802   -2.2092 H   0  0  0  0  0  0
    4.5710    5.1019    1.4913 H   0  0  0  0  0  0
    3.6348    3.0835    2.5336 H   0  0  0  0  0  0
  1  2  2  0  0  0
  1  6  1  0  0  0
  1 31  1  0  0  0
  2  3  1  0  0  0
  2 32  1  0  0  0
  3  4  2  0  0  0
  3 33  1  0  0  0
  4  5  1  0  0  0
  4 34  1  0  0  0
  5  6  2  0  0  0
  5  7  1  0  0  0
  6 35  1  0  0  0
  7  8  1  0  0  0
  8 13  2  0  0  0
  8  9  1  0  0  0
  9 10  2  0  0  0
  9 36  1  0  0  0
 10 11  1  0  0  0
 10 37  1  0  0  0
 11 12  2  0  0  0
 11 38  1  0  0  0
 12 13  1  0  0  0
 12 14  1  0  0  0
 13 39  1  0  0  0
 14 15  1  0  0  0
 14 16  1  0  0  0
 14 40  1  0  0  0
 15 17  1  0  0  0
 16 20  3  0  0  0
 17 18  1  0  0  0
 17 19  2  0  0  0
 18 21  1  0  0  0
 18 24  1  0  0  0
 18 41  1  0  0  0
 21 22  1  0  0  0
 21 23  1  0  0  0
 21 42  1  0  0  0
 22 43  1  0  0  0
 22 44  1  0  0  0
 22 45  1  0  0  0
 23 46  1  0  0  0
 23 47  1  0  0  0
 23 48  1  0  0  0
 24 29  2  0  0  0
 24 25  1  0  0  0
 25 26  2  0  0  0
 25 49  1  0  0  0
 26 27  1  0  0  0
 26 50  1  0  0  0
 27 28  2  0  0  0
 27 30  1  0  0  0
 28 29  1  0  0  0
 28 51  1  0  0  0
 29 52  1  0  0  0
M  END
> <s_m_entry_id>
22

> <s_m_entry_name>
entry

> <i_lp_mmshare_version>
47013

> <i_f3d_flags>
0

> <s_epik_input>
W2NIXTFbY0hdW2NIXVtjSF1bY0hdYzFPYzJbY0hdW2NIXVtjSF1jKFtjSF0yKVtDQEhdKEMjTilPQyg9TylbQ0BIXShbQ0hdKFtDSDNdKVtDSDNdKWMzW2NIXVtjSF1jKENsKVtjSF1bY0hdMw==

> <s_epik_cmdline>
J2VwaWtfcHl0aG9uJywgJy1waCcsICc3LjQnLCAnLXRuJywgJzgnLCAnLW1hJywgJzIwMCcsICctaW1hZScsICc8aW5maWxlLm1hZT4nLCAnLW9tYWUnLCAnPG91dGZpbGUubWFlPic=

> <r_epik_Ionization_Penalty>
  0.0000

> <r_epik_Ionization_Penalty_Charging>
  0.0000

> <r_epik_Ionization_Penalty_Neutral>
  0.0000

> <r_epik_State_Penalty>
  0.0000

> <r_epik_Charging_Adjusted_Penalty>
0

> <i_epik_Tot_Q>
0

> <i_epik_Tot_abs_Q>
0

> <s_lp_Force_Field>
OPLS3e

> <r_lp_Energy>
42.216371

> <b_lp_Chiralities_Consistent>
1

> <s_lp_Variant>
CE1_M77_-1

> <s_m_job_name>
ligprep_94

> <s_m_Source_Path>
/home/andre/Documents/projects/Esterase/data/FINAL_STUFF/Compounds/MAE_external

> <s_m_Source_File>
22.mae

> <i_m_Source_File_Index>
1

> <r_lp_tautomer_probability>
1

> <s_epik_Chemistry_Notes>
This compound has an ester and may undergo hydrolysis at high or low pH.

$$$$
