26
                    3D
 Schrodinger Suite 2021-1.
 51 53  0  0  1  0            999 V2000
   -2.0283   -3.0071   -4.2308 C   0  0  0  0  0  0
   -1.6586   -2.3381   -3.0372 C   0  0  0  0  0  0
   -1.4374   -0.9290   -3.0694 C   0  0  0  0  0  0
   -1.5907   -0.2382   -4.2945 C   0  0  0  0  0  0
   -1.9553   -0.9262   -5.4482 C   0  0  0  0  0  0
   -2.1776   -2.3015   -5.4346 C   0  0  0  0  0  0
   -1.5015   -3.0306   -1.8114 C   0  0  0  0  0  0
   -1.1409   -2.3438   -0.6553 C   0  0  0  0  0  0
   -0.9309   -0.9654   -0.6774 C   0  0  0  0  0  0
   -1.0708   -0.2599   -1.8757 C   0  0  0  0  0  0
   -2.5369   -2.8795   -6.6372 O   0  0  0  0  0  0
   -2.7792   -4.2814   -6.6899 C   0  0  0  0  0  0
   -0.5313   -0.2434    0.6031 C   0  0  1  0  0  0
    0.8794   -0.0161    0.5707 O   0  0  0  0  0  0
   -1.3353    0.9801    0.8152 C   0  0  0  0  0  0
    1.5365    0.6398    1.5581 C   0  0  0  0  0  0
    3.0409    0.7976    1.2523 C   0  0  2  0  0  0
    1.0322    1.0855    2.5918 O   0  0  0  0  0  0
   -1.9643    1.9375    0.9806 N   0  0  0  0  0  0
    3.7745   -0.3466    1.9656 C   0  0  0  0  0  0
    3.6102    2.2206    1.5685 C   0  0  0  0  0  0
    2.8691    3.3456    0.8101 C   0  0  0  0  0  0
    5.1223    2.3158    1.2725 C   0  0  0  0  0  0
    4.2484   -1.4253    1.2122 C   0  0  0  0  0  0
    4.9190   -2.4743    1.8355 C   0  0  0  0  0  0
    5.1163   -2.4468    3.2148 C   0  0  0  0  0  0
    4.6476   -1.3774    3.9752 C   0  0  0  0  0  0
    3.9777   -0.3281    3.3522 C   0  0  0  0  0  0
    5.9459   -3.7481    3.9877 Cl  0  0  0  0  0  0
   -2.1915   -4.0736   -4.1848 H   0  0  0  0  0  0
   -1.4243    0.8290   -4.3303 H   0  0  0  0  0  0
   -2.0683   -0.3786   -6.3727 H   0  0  0  0  0  0
   -1.6640   -4.0984   -1.7774 H   0  0  0  0  0  0
   -1.0248   -2.8939    0.2676 H   0  0  0  0  0  0
   -0.9001    0.8072   -1.9032 H   0  0  0  0  0  0
   -3.0515   -4.5615   -7.7073 H   0  0  0  0  0  0
   -3.6041   -4.5697   -6.0365 H   0  0  0  0  0  0
   -1.8897   -4.8515   -6.4176 H   0  0  0  0  0  0
   -0.7480   -0.8991    1.4482 H   0  0  0  0  0  0
    3.1685    0.6479    0.1787 H   0  0  0  0  0  0
    3.4819    2.4211    2.6337 H   0  0  0  0  0  0
    2.9292    3.2031   -0.2696 H   0  0  0  0  0  0
    3.2944    4.3236    1.0379 H   0  0  0  0  0  0
    1.8135    3.3930    1.0787 H   0  0  0  0  0  0
    5.3360    2.1098    0.2230 H   0  0  0  0  0  0
    5.6983    1.6100    1.8714 H   0  0  0  0  0  0
    5.5092    3.3100    1.4994 H   0  0  0  0  0  0
    4.0982   -1.4533    0.1428 H   0  0  0  0  0  0
    5.2830   -3.3050    1.2489 H   0  0  0  0  0  0
    4.8006   -1.3593    5.0444 H   0  0  0  0  0  0
    3.6140    0.4950    3.9494 H   0  0  0  0  0  0
  1  2  2  0  0  0
  1  6  1  0  0  0
  1 30  1  0  0  0
  2  3  1  0  0  0
  2  7  1  0  0  0
  3  4  2  0  0  0
  3 10  1  0  0  0
  4  5  1  0  0  0
  4 31  1  0  0  0
  5  6  2  0  0  0
  5 32  1  0  0  0
  6 11  1  0  0  0
  7  8  2  0  0  0
  7 33  1  0  0  0
  8  9  1  0  0  0
  8 34  1  0  0  0
  9 10  2  0  0  0
  9 13  1  0  0  0
 10 35  1  0  0  0
 11 12  1  0  0  0
 12 36  1  0  0  0
 12 37  1  0  0  0
 12 38  1  0  0  0
 13 14  1  0  0  0
 13 15  1  0  0  0
 13 39  1  0  0  0
 14 16  1  0  0  0
 15 19  3  0  0  0
 16 17  1  0  0  0
 16 18  2  0  0  0
 17 20  1  0  0  0
 17 21  1  0  0  0
 17 40  1  0  0  0
 20 28  2  0  0  0
 20 24  1  0  0  0
 21 22  1  0  0  0
 21 23  1  0  0  0
 21 41  1  0  0  0
 22 42  1  0  0  0
 22 43  1  0  0  0
 22 44  1  0  0  0
 23 45  1  0  0  0
 23 46  1  0  0  0
 23 47  1  0  0  0
 24 25  2  0  0  0
 24 48  1  0  0  0
 25 26  1  0  0  0
 25 49  1  0  0  0
 26 27  2  0  0  0
 26 29  1  0  0  0
 27 28  1  0  0  0
 27 50  1  0  0  0
 28 51  1  0  0  0
M  END
> <s_m_entry_id>
26

> <s_m_entry_name>
entry

> <i_lp_mmshare_version>
47013

> <i_f3d_flags>
0

> <s_epik_input>
W0NIM11PYyhbY0hdMSlbY0hdW2NIXWMoYzEyKVtjSF1jKFtjSF1bY0hdMilbQ0BIXShDI04pT0MoPU8pW0NAQEhdKFtDSF0oW0NIM10pW0NIM10pYzNbY0hdW2NIXWMoQ2wpW2NIXVtjSF0z

> <s_epik_cmdline>
J2VwaWtfcHl0aG9uJywgJy1waCcsICc3LjQnLCAnLXRuJywgJzgnLCAnLW1hJywgJzIwMCcsICctaW1hZScsICc8aW5maWxlLm1hZT4nLCAnLW9tYWUnLCAnPG91dGZpbGUubWFlPic=

> <r_epik_Ionization_Penalty>
  0.0000

> <r_epik_Ionization_Penalty_Charging>
  0.0000

> <r_epik_Ionization_Penalty_Neutral>
  0.0000

> <r_epik_State_Penalty>
  0.0000

> <r_epik_Charging_Adjusted_Penalty>
0

> <i_epik_Tot_Q>
0

> <i_epik_Tot_abs_Q>
0

> <s_lp_Force_Field>
OPLS3e

> <r_lp_Energy>
38.09518

> <b_lp_Chiralities_Consistent>
1

> <s_lp_Variant>
CE_M86-1

> <s_m_job_name>
ligprep_96

> <s_m_Source_Path>
/home/andre/Documents/projects/Esterase/data/FINAL_STUFF/Compounds/MAE_external

> <s_m_Source_File>
26.mae

> <i_m_Source_File_Index>
1

> <r_lp_tautomer_probability>
1

> <s_epik_Chemistry_Notes>
This compound has an ester and may undergo hydrolysis at high or low pH.

$$$$
