28
                    3D
 Schrodinger Suite 2021-1.
 46 50  0  0  1  0            999 V2000
   -2.1995    1.1992    0.5226 C   0  0  0  0  0  0
   -0.6826    1.3324    0.5357 C   0  0  0  0  0  0
   -0.1300    2.3476    0.9612 O   0  0  0  0  0  0
   -0.0691    0.2378    0.0296 O   0  0  0  0  0  0
    1.3558    0.1503   -0.0738 C   0  0  1  0  0  0
    1.7544   -1.3132    0.0944 C   0  0  0  0  0  0
    2.7118   -1.9425   -0.6087 C   0  0  0  0  0  0
    3.5386   -1.2740   -1.6950 C   0  0  1  0  0  0
    3.9985   -2.2190   -2.8587 C   0  0  1  0  0  0
    2.8185   -2.8041   -3.7070 C   0  0  0  0  0  0
    1.6679   -1.8173   -3.9142 C   0  0  0  0  0  0
    0.5636   -2.0456   -4.7503 C   0  0  0  0  0  0
   -0.5010   -1.1292   -4.8110 C   0  0  0  0  0  0
   -0.4976    0.0174   -4.0041 C   0  0  0  0  0  0
   -1.5515    0.8929   -4.0082 O   0  0  0  0  0  0
    0.5975    0.2278   -3.1708 C   0  0  0  0  0  0
    0.7757    1.2213   -2.2401 O   0  0  0  0  0  0
    1.8883    0.8201   -1.4009 C   0  0  2  0  0  0
    2.7616   -0.0847   -2.3192 C   0  0  1  0  0  0
    3.7701    0.7331   -3.1746 C   0  0  0  0  0  0
    4.3826   -0.0793   -4.3412 C   0  0  0  0  0  0
    4.9318   -1.4450   -3.8423 N   0  3  1  0  0  0
    6.3380   -1.2407   -3.2328 C   0  0  0  0  0  0
    1.6647   -0.6298   -3.1853 C   0  0  0  0  0  0
   -2.5101    0.3307    1.1036 H   0  0  0  0  0  0
   -2.5575    1.0807   -0.5004 H   0  0  0  0  0  0
   -2.6676    2.0860    0.9504 H   0  0  0  0  0  0
    1.7763    0.6757    0.7861 H   0  0  0  0  0  0
    1.2437   -1.8923    0.8506 H   0  0  0  0  0  0
    2.9037   -2.9798   -0.3746 H   0  0  0  0  0  0
    4.4197   -0.9007   -1.1725 H   0  0  0  0  0  0
    4.6051   -3.0453   -2.4838 H   0  0  0  0  0  0
    3.1673   -3.1952   -4.6640 H   0  0  0  0  0  0
    2.4084   -3.6598   -3.1692 H   0  0  0  0  0  0
    0.5195   -2.9468   -5.3444 H   0  0  0  0  0  0
   -1.3402   -1.3313   -5.4606 H   0  0  0  0  0  0
   -2.2502    0.6394   -4.6156 H   0  0  0  0  0  0
    2.4308    1.7199   -1.1072 H   0  0  0  0  0  0
    3.2754    1.6082   -3.5996 H   0  0  0  0  0  0
    4.5699    1.1209   -2.5426 H   0  0  0  0  0  0
    3.6419   -0.3347   -5.0989 H   0  0  0  0  0  0
    5.1862    0.4432   -4.8620 H   0  0  0  0  0  0
    6.2693   -0.5594   -2.3853 H   0  0  0  0  0  0
    6.9695   -0.8264   -4.0198 H   0  0  0  0  0  0
    6.7094   -2.2201   -2.9296 H   0  0  0  0  0  0
    5.0902   -2.0237   -4.6553 H   0  0  0  0  0  0
  1  2  1  0  0  0
  1 25  1  0  0  0
  1 26  1  0  0  0
  1 27  1  0  0  0
  2  3  2  0  0  0
  2  4  1  0  0  0
  4  5  1  0  0  0
  5 18  1  0  0  0
  5  6  1  0  0  0
  5 28  1  0  0  0
  6  7  2  0  0  0
  6 29  1  0  0  0
  7  8  1  0  0  0
  7 30  1  0  0  0
  8 19  1  0  0  0
  8  9  1  0  0  0
  8 31  1  0  0  0
  9 22  1  0  0  0
  9 10  1  0  0  0
  9 32  1  0  0  0
 10 11  1  0  0  0
 10 33  1  0  0  0
 10 34  1  0  0  0
 11 24  2  0  0  0
 11 12  1  0  0  0
 12 13  2  0  0  0
 12 35  1  0  0  0
 13 14  1  0  0  0
 13 36  1  0  0  0
 14 15  1  0  0  0
 14 16  2  0  0  0
 15 37  1  0  0  0
 16 24  1  0  0  0
 16 17  1  0  0  0
 17 18  1  0  0  0
 18 19  1  0  0  0
 18 38  1  0  0  0
 19 20  1  0  0  0
 19 24  1  0  0  0
 20 21  1  0  0  0
 20 39  1  0  0  0
 20 40  1  0  0  0
 21 22  1  0  0  0
 21 41  1  0  0  0
 21 42  1  0  0  0
 22 23  1  0  0  0
 22 46  1  0  0  0
 23 43  1  0  0  0
 23 44  1  0  0  0
 23 45  1  0  0  0
M  CHG  1  22   1
M  END
> <s_m_entry_id>
28

> <s_m_entry_name>
entry

> <i_lp_mmshare_version>
47013

> <i_f3d_flags>
0

> <s_epik_input>
W0NIM11DKD1PKU9bQ0BASF0oW0NIXT1bQ0hdMSlbQ0BASF0yT2MoYyhbT0hdKVtjSF1bY0hdMyljNGMzW0NIMl1bQ0BIXShbQ0BIXTFbQ0BdMjQ1KU4oW0NIM10pW0NIMl1bQ0gyXTU=

> <s_epik_cmdline>
J2VwaWtfcHl0aG9uJywgJy1waCcsICc3LjQnLCAnLXRuJywgJzgnLCAnLW1hJywgJzIwMCcsICctaW1hZScsICc8aW5maWxlLm1hZT4nLCAnLW9tYWUnLCAnPG91dGZpbGUubWFlPic=

> <r_epik_Ionization_Penalty>
  0.2209

> <r_epik_Ionization_Penalty_Charging>
  0.1852

> <r_epik_Ionization_Penalty_Neutral>
  0.0357

> <r_epik_State_Penalty>
  0.2651

> <r_epik_Charging_Adjusted_Penalty>
0.450247688887874

> <i_epik_Tot_Q>
1

> <i_epik_Tot_abs_Q>
1

> <s_lp_Force_Field>
OPLS3e

> <r_lp_Energy>
52.263791

> <b_lp_Chiralities_Consistent>
1

> <s_lp_Variant>
CE1_520352_-1

> <s_m_job_name>
ligprep_99

> <s_m_Source_Path>
/home/andre/Documents/projects/Esterase/data/FINAL_STUFF/Compounds/MAE_external

> <s_m_Source_File>
28.mae

> <i_m_Source_File_Index>
1

> <r_lp_tautomer_probability>
0.999999999999776

> <s_epik_Chemistry_Notes>
This compound has an ester and may undergo hydrolysis at high or low pH.

$$$$
