29
                    3D
 Schrodinger Suite 2021-1.
 51 55  0  0  1  0            999 V2000
   -2.2293    1.1146    0.4765 C   0  0  0  0  0  0
   -0.7154    1.2788    0.4916 C   0  0  0  0  0  0
   -0.1856    2.3181    0.8864 O   0  0  0  0  0  0
   -0.0770    0.1818    0.0219 O   0  0  0  0  0  0
    1.3504    0.1192   -0.0717 C   0  0  1  0  0  0
    1.7711   -1.3376    0.1009 C   0  0  0  0  0  0
    2.7353   -1.9570   -0.6019 C   0  0  0  0  0  0
    3.5527   -1.2828   -1.6919 C   0  0  1  0  0  0
    4.0190   -2.2250   -2.8554 C   0  0  1  0  0  0
    2.8421   -2.8223   -3.6997 C   0  0  0  0  0  0
    1.6818   -1.8463   -3.9059 C   0  0  0  0  0  0
    1.6708   -0.6574   -3.1795 C   0  0  0  0  0  0
    2.7640   -0.1014   -2.3158 C   0  0  1  0  0  0
    1.8835    0.7951   -1.3962 C   0  0  1  0  0  0
    0.7694    1.1884   -2.2354 O   0  0  0  0  0  0
    0.5966    0.1903   -3.1618 C   0  0  0  0  0  0
   -0.5018   -0.0288   -3.9936 C   0  0  0  0  0  0
   -0.5010   -1.1844   -4.7898 C   0  0  0  0  0  0
    0.5741   -2.0886   -4.7334 C   0  0  0  0  0  0
   -1.5815    0.8249   -3.9680 O   0  0  0  0  0  0
   -1.5035    2.0211   -4.6085 C   0  0  0  0  0  0
   -0.5463    2.4536   -5.2550 O   0  0  0  0  0  0
   -2.7807    2.8368   -4.4520 C   0  0  0  0  0  0
    3.7633    0.7247   -3.1741 C   0  0  0  0  0  0
    4.3790   -0.0834   -4.3418 C   0  0  0  0  0  0
    4.9424   -1.4432   -3.8423 N   0  3  1  0  0  0
    6.3486   -1.2249   -3.2374 C   0  0  0  0  0  0
   -2.5291    0.3092    1.1473 H   0  0  0  0  0  0
   -2.5733    0.8759   -0.5302 H   0  0  0  0  0  0
   -2.7200    2.0329    0.7995 H   0  0  0  0  0  0
    1.7531    0.6539    0.7908 H   0  0  0  0  0  0
    1.2692   -1.9212    0.8595 H   0  0  0  0  0  0
    2.9403   -2.9911   -0.3649 H   0  0  0  0  0  0
    4.4310   -0.9006   -1.1715 H   0  0  0  0  0  0
    4.6352   -3.0443   -2.4809 H   0  0  0  0  0  0
    3.1926   -3.2127   -4.6563 H   0  0  0  0  0  0
    2.4411   -3.6804   -3.1590 H   0  0  0  0  0  0
    2.4191    1.6983   -1.1005 H   0  0  0  0  0  0
   -1.3464   -1.3992   -5.4270 H   0  0  0  0  0  0
    0.5338   -2.9937   -5.3216 H   0  0  0  0  0  0
   -3.0242    2.9633   -3.3970 H   0  0  0  0  0  0
   -3.6131    2.3336   -4.9439 H   0  0  0  0  0  0
   -2.6642    3.8246   -4.8982 H   0  0  0  0  0  0
    3.2605    1.5957   -3.5983 H   0  0  0  0  0  0
    4.5619    1.1191   -2.5446 H   0  0  0  0  0  0
    3.6374   -0.3469   -5.0960 H   0  0  0  0  0  0
    5.1752    0.4454   -4.8677 H   0  0  0  0  0  0
    6.2750   -0.5522   -2.3833 H   0  0  0  0  0  0
    6.9716   -0.7952   -4.0228 H   0  0  0  0  0  0
    6.7342   -2.2023   -2.9451 H   0  0  0  0  0  0
    5.1035   -2.0210   -4.6553 H   0  0  0  0  0  0
  1  2  1  0  0  0
  1 28  1  0  0  0
  1 29  1  0  0  0
  1 30  1  0  0  0
  2  3  2  0  0  0
  2  4  1  0  0  0
  4  5  1  0  0  0
  5 14  1  0  0  0
  5  6  1  0  0  0
  5 31  1  0  0  0
  6  7  2  0  0  0
  6 32  1  0  0  0
  7  8  1  0  0  0
  7 33  1  0  0  0
  8 13  1  0  0  0
  8  9  1  0  0  0
  8 34  1  0  0  0
  9 26  1  0  0  0
  9 10  1  0  0  0
  9 35  1  0  0  0
 10 11  1  0  0  0
 10 36  1  0  0  0
 10 37  1  0  0  0
 11 19  2  0  0  0
 11 12  1  0  0  0
 12 16  2  0  0  0
 12 13  1  0  0  0
 13 14  1  0  0  0
 13 24  1  0  0  0
 14 15  1  0  0  0
 14 38  1  0  0  0
 15 16  1  0  0  0
 16 17  1  0  0  0
 17 18  2  0  0  0
 17 20  1  0  0  0
 18 19  1  0  0  0
 18 39  1  0  0  0
 19 40  1  0  0  0
 20 21  1  0  0  0
 21 22  2  0  0  0
 21 23  1  0  0  0
 23 41  1  0  0  0
 23 42  1  0  0  0
 23 43  1  0  0  0
 24 25  1  0  0  0
 24 44  1  0  0  0
 24 45  1  0  0  0
 25 26  1  0  0  0
 25 46  1  0  0  0
 25 47  1  0  0  0
 26 27  1  0  0  0
 26 51  1  0  0  0
 27 48  1  0  0  0
 27 49  1  0  0  0
 27 50  1  0  0  0
M  CHG  1  26   1
M  END
> <s_m_entry_id>
29

> <s_m_entry_name>
entry

> <i_lp_mmshare_version>
47013

> <i_f3d_flags>
0

> <s_epik_input>
W0NIM11DKD1PKU9bQ0BASF0oW0NIXT1bQ0hdMSlbQ0BASF0yT2MoYyhbY0hdW2NIXTMpT0MoPU8pW0NIM10pYzRjM1tDSDJdW0NASF0oW0NASF0xW0NAXTI0NSlOKFtDSDNdKVtDSDJdW0NIMl01

> <s_epik_cmdline>
J2VwaWtfcHl0aG9uJywgJy1waCcsICc3LjQnLCAnLXRuJywgJzgnLCAnLW1hJywgJzIwMCcsICctaW1hZScsICc8aW5maWxlLm1hZT4nLCAnLW9tYWUnLCAnPG91dGZpbGUubWFlPic=

> <r_epik_Ionization_Penalty>
  0.1680

> <r_epik_Ionization_Penalty_Charging>
  0.1680

> <r_epik_Ionization_Penalty_Neutral>
  0.0000

> <r_epik_State_Penalty>
  0.1574

> <r_epik_Charging_Adjusted_Penalty>
0.325434124531865

> <i_epik_Tot_Q>
1

> <i_epik_Tot_abs_Q>
1

> <s_lp_Force_Field>
OPLS3e

> <r_lp_Energy>
55.064141

> <b_lp_Chiralities_Consistent>
1

> <s_lp_Variant>
CE1_5462328-1

> <s_m_job_name>
ligprep_100

> <s_m_Source_Path>
/home/andre/Documents/projects/Esterase/data/FINAL_STUFF/Compounds/MAE_external

> <s_m_Source_File>
29.mae

> <i_m_Source_File_Index>
1

> <r_lp_tautomer_probability>
1

> <s_epik_Chemistry_Notes>
This compound has an ester and may undergo hydrolysis at high or low pH.

$$$$
