30
                    3D
 Schrodinger Suite 2021-1.
 51 53  0  0  1  0            999 V2000
   -3.8352   -7.0584   -3.4845 C   0  0  0  0  0  0
   -2.5125   -7.1423   -3.9142 C   0  0  0  0  0  0
   -1.4632   -6.8588   -3.0427 C   0  0  0  0  0  0
   -1.7393   -6.4887   -1.7290 C   0  0  0  0  0  0
   -3.0645   -6.4004   -1.2913 C   0  0  0  0  0  0
   -4.1121   -6.6878   -2.1710 C   0  0  0  0  0  0
   -3.3634   -5.9948    0.1462 C   0  0  0  0  0  0
   -2.9782   -4.5609    0.4411 C   0  0  0  0  0  0
   -2.1292   -3.9578    1.3555 C   0  0  0  0  0  0
   -2.1659   -2.5736    1.1488 C   0  0  0  0  0  0
   -3.0785   -2.4090    0.1145 C   0  0  0  0  0  0
   -3.5645   -3.6001   -0.3148 O   0  0  0  0  0  0
   -1.4063   -1.4986    1.8994 C   0  0  0  0  0  0
   -0.1183   -1.2953    1.3211 O   0  0  0  0  0  0
    0.0559   -0.5166    0.2273 C   0  0  0  0  0  0
    1.5288   -0.4844   -0.2173 C   0  0  1  0  0  0
   -0.8334    0.1042   -0.3601 O   0  0  0  0  0  0
    1.9610   -0.6821   -1.6660 C   0  0  0  0  0  0
    2.0162    0.7014   -1.0746 C   0  0  2  0  0  0
    3.2545   -1.4943   -1.8840 C   0  0  0  0  0  0
    0.9074   -0.9727   -2.7591 C   0  0  0  0  0  0
    3.3321    1.3355   -0.6399 C   0  0  0  0  0  0
    3.7235    2.6164   -0.8126 C   0  0  0  0  0  0
    5.0695    3.1032   -0.3018 C   0  0  0  0  0  0
    2.9059    3.6893   -1.5189 C   0  0  0  0  0  0
   -4.6422   -7.2795   -4.1674 H   0  0  0  0  0  0
   -2.2987   -7.4294   -4.9331 H   0  0  0  0  0  0
   -0.4407   -6.9257   -3.3840 H   0  0  0  0  0  0
   -0.9255   -6.2679   -1.0536 H   0  0  0  0  0  0
   -5.1389   -6.6222   -1.8418 H   0  0  0  0  0  0
   -4.4172   -6.1604    0.3754 H   0  0  0  0  0  0
   -2.8026   -6.6602    0.8040 H   0  0  0  0  0  0
   -1.5303   -4.4708    2.0934 H   0  0  0  0  0  0
   -3.4539   -1.5371   -0.4010 H   0  0  0  0  0  0
   -1.9629   -0.5599    1.9279 H   0  0  0  0  0  0
   -1.2618   -1.7840    2.9416 H   0  0  0  0  0  0
    2.1912   -0.8975    0.5446 H   0  0  0  0  0  0
    1.2519    1.3904   -1.4320 H   0  0  0  0  0  0
    3.7508   -1.1959   -2.8078 H   0  0  0  0  0  0
    3.0360   -2.5604   -1.9524 H   0  0  0  0  0  0
    3.9729   -1.3723   -1.0738 H   0  0  0  0  0  0
    1.3235   -0.7933   -3.7508 H   0  0  0  0  0  0
    0.0199   -0.3468   -2.6810 H   0  0  0  0  0  0
    0.5805   -2.0121   -2.7198 H   0  0  0  0  0  0
    4.0091    0.6705   -0.1236 H   0  0  0  0  0  0
    5.6771    3.4779   -1.1263 H   0  0  0  0  0  0
    5.6330    2.3086    0.1894 H   0  0  0  0  0  0
    4.9322    3.9070    0.4222 H   0  0  0  0  0  0
    3.4945    4.1487   -2.3137 H   0  0  0  0  0  0
    2.6216    4.4679   -0.8104 H   0  0  0  0  0  0
    1.9928    3.3140   -1.9757 H   0  0  0  0  0  0
  1  2  2  0  0  0
  1  6  1  0  0  0
  1 26  1  0  0  0
  2  3  1  0  0  0
  2 27  1  0  0  0
  3  4  2  0  0  0
  3 28  1  0  0  0
  4  5  1  0  0  0
  4 29  1  0  0  0
  5  6  2  0  0  0
  5  7  1  0  0  0
  6 30  1  0  0  0
  7  8  1  0  0  0
  7 31  1  0  0  0
  7 32  1  0  0  0
  8 12  1  0  0  0
  8  9  2  0  0  0
  9 10  1  0  0  0
  9 33  1  0  0  0
 10 11  2  0  0  0
 10 13  1  0  0  0
 11 12  1  0  0  0
 11 34  1  0  0  0
 13 14  1  0  0  0
 13 35  1  0  0  0
 13 36  1  0  0  0
 14 15  1  0  0  0
 15 16  1  0  0  0
 15 17  2  0  0  0
 16 19  1  0  0  0
 16 18  1  0  0  0
 16 37  1  0  0  0
 18 19  1  0  0  0
 18 20  1  0  0  0
 18 21  1  0  0  0
 19 22  1  0  0  0
 19 38  1  0  0  0
 20 39  1  0  0  0
 20 40  1  0  0  0
 20 41  1  0  0  0
 21 42  1  0  0  0
 21 43  1  0  0  0
 21 44  1  0  0  0
 22 23  2  0  0  0
 22 45  1  0  0  0
 23 24  1  0  0  0
 23 25  1  0  0  0
 24 46  1  0  0  0
 24 47  1  0  0  0
 24 48  1  0  0  0
 25 49  1  0  0  0
 25 50  1  0  0  0
 25 51  1  0  0  0
M  END
> <s_m_entry_id>
30

> <s_m_entry_name>
entry

> <i_lp_mmshare_version>
47013

> <i_f3d_flags>
0

> <s_epik_input>
W2NIXTFbY0hdW2NIXVtjSF1bY0hdYzFbQ0gyXWMyW2NIXWMoW2NIXW8yKVtDSDJdT0MoPU8pW0NAQEhdKEMzKFtDSDNdKVtDSDNdKVtDQEhdM1tDSF09QyhbQ0gzXSlbQ0gzXQ==

> <s_epik_cmdline>
J2VwaWtfcHl0aG9uJywgJy1waCcsICc3LjQnLCAnLXRuJywgJzgnLCAnLW1hJywgJzIwMCcsICctaW1hZScsICc8aW5maWxlLm1hZT4nLCAnLW9tYWUnLCAnPG91dGZpbGUubWFlPic=

> <r_epik_Ionization_Penalty>
  0.0000

> <r_epik_Ionization_Penalty_Charging>
  0.0000

> <r_epik_Ionization_Penalty_Neutral>
  0.0000

> <r_epik_State_Penalty>
  0.0000

> <r_epik_Charging_Adjusted_Penalty>
0

> <i_epik_Tot_Q>
0

> <i_epik_Tot_abs_Q>
0

> <s_lp_Force_Field>
OPLS3e

> <r_lp_Energy>
24.433311

> <b_lp_Chiralities_Consistent>
1

> <s_lp_Variant>
CE_162381-1

> <s_m_job_name>
ligprep_101

> <s_m_Source_Path>
/home/andre/Documents/projects/Esterase/data/FINAL_STUFF/Compounds/MAE_external

> <s_m_Source_File>
30.mae

> <i_m_Source_File_Index>
1

> <r_lp_tautomer_probability>
1

> <s_epik_Chemistry_Notes>
This compound has an ester and may undergo hydrolysis at high or low pH.

$$$$
