32
                    3D
 Schrodinger Suite 2021-1.
 46 48  0  0  1  0            999 V2000
   -0.7868    6.7492   -3.9085 C   0  0  0  0  0  0
    0.5957    6.6082   -4.0041 C   0  0  0  0  0  0
    1.2546    5.5946   -3.3124 C   0  0  0  0  0  0
    0.5250    4.7175   -2.5143 C   0  0  0  0  0  0
   -0.8664    4.8601   -2.4008 C   0  0  0  0  0  0
   -1.5159    5.8715   -3.1104 C   0  0  0  0  0  0
   -1.6490    4.0104   -1.6450 O   0  0  0  0  0  0
   -1.1318    3.3771   -0.5383 C   0  0  0  0  0  0
   -1.1515    1.9822   -0.4837 C   0  0  0  0  0  0
   -0.6283    1.3101    0.6246 C   0  0  0  0  0  0
   -0.1020    2.0427    1.6925 C   0  0  0  0  0  0
   -0.0954    3.4369    1.6503 C   0  0  0  0  0  0
   -0.6103    4.1035    0.5387 C   0  0  0  0  0  0
   -0.6168   -0.2130    0.6602 C   0  0  0  0  0  0
    0.7132   -0.7260    0.5747 O   0  0  0  0  0  0
    1.4125   -0.7067   -0.5860 C   0  0  0  0  0  0
    2.8441   -1.2499   -0.3895 C   0  0  2  0  0  0
    0.9825   -0.3031   -1.6686 O   0  0  0  0  0  0
    4.0602   -0.5449   -0.9670 C   0  0  0  0  0  0
    3.6679   -1.8840   -1.5445 C   0  0  2  0  0  0
    4.5067   -3.1345   -1.3107 C   0  0  0  0  0  0
    3.9099    0.7622   -1.7860 C   0  0  0  0  0  0
    5.2938   -0.5046   -0.0471 C   0  0  0  0  0  0
    4.0267   -4.3639   -1.0541 C   0  0  0  0  0  0
    5.1058   -5.7339   -0.7826 Cl  0  0  0  0  0  0
    2.2985   -4.7283   -0.9742 Cl  0  0  0  0  0  0
   -1.2917    7.5336   -4.4529 H   0  0  0  0  0  0
    1.1614    7.2878   -4.6243 H   0  0  0  0  0  0
    2.3258    5.4865   -3.3976 H   0  0  0  0  0  0
    1.0437    3.9276   -1.9908 H   0  0  0  0  0  0
   -2.5886    5.9777   -3.0400 H   0  0  0  0  0  0
   -1.5567    1.4231   -1.3149 H   0  0  0  0  0  0
    0.3061    1.5327    2.5531 H   0  0  0  0  0  0
    0.3114    4.0004    2.4769 H   0  0  0  0  0  0
   -0.6015    5.1832    0.5096 H   0  0  0  0  0  0
   -1.0608   -0.5414    1.6003 H   0  0  0  0  0  0
   -1.2421   -0.6231   -0.1351 H   0  0  0  0  0  0
    2.9622   -1.6837    0.6043 H   0  0  0  0  0  0
    3.2139   -1.8495   -2.5354 H   0  0  0  0  0  0
    5.5770   -2.9991   -1.3603 H   0  0  0  0  0  0
    4.8166    0.9694   -2.3546 H   0  0  0  0  0  0
    3.7344    1.6135   -1.1277 H   0  0  0  0  0  0
    3.0937    0.7374   -2.5057 H   0  0  0  0  0  0
    6.2104   -0.4046   -0.6290 H   0  0  0  0  0  0
    5.3894   -1.4100    0.5539 H   0  0  0  0  0  0
    5.2404    0.3379    0.6432 H   0  0  0  0  0  0
  1  2  2  0  0  0
  1  6  1  0  0  0
  1 27  1  0  0  0
  2  3  1  0  0  0
  2 28  1  0  0  0
  3  4  2  0  0  0
  3 29  1  0  0  0
  4  5  1  0  0  0
  4 30  1  0  0  0
  5  6  2  0  0  0
  5  7  1  0  0  0
  6 31  1  0  0  0
  7  8  1  0  0  0
  8 13  2  0  0  0
  8  9  1  0  0  0
  9 10  2  0  0  0
  9 32  1  0  0  0
 10 11  1  0  0  0
 10 14  1  0  0  0
 11 12  2  0  0  0
 11 33  1  0  0  0
 12 13  1  0  0  0
 12 34  1  0  0  0
 13 35  1  0  0  0
 14 15  1  0  0  0
 14 36  1  0  0  0
 14 37  1  0  0  0
 15 16  1  0  0  0
 16 17  1  0  0  0
 16 18  2  0  0  0
 17 20  1  0  0  0
 17 19  1  0  0  0
 17 38  1  0  0  0
 19 20  1  0  0  0
 19 22  1  0  0  0
 19 23  1  0  0  0
 20 21  1  0  0  0
 20 39  1  0  0  0
 21 24  2  0  0  0
 21 40  1  0  0  0
 22 41  1  0  0  0
 22 42  1  0  0  0
 22 43  1  0  0  0
 23 44  1  0  0  0
 23 45  1  0  0  0
 23 46  1  0  0  0
 24 25  1  0  0  0
 24 26  1  0  0  0
M  END
> <s_m_entry_id>
32

> <s_m_entry_name>
entry

> <i_lp_mmshare_version>
47013

> <i_f3d_flags>
0

> <s_epik_input>
W2NIXTFbY0hdW2NIXVtjSF1bY0hdYzFPYzJbY0hdYyhbY0hdW2NIXVtjSF0yKVtDSDJdT0MoPU8pW0NASF0oQzMoW0NIM10pW0NIM10pW0NASF0zW0NIXT1DKENsKUNs

> <s_epik_cmdline>
J2VwaWtfcHl0aG9uJywgJy1waCcsICc3LjQnLCAnLXRuJywgJzgnLCAnLW1hJywgJzIwMCcsICctaW1hZScsICc8aW5maWxlLm1hZT4nLCAnLW9tYWUnLCAnPG91dGZpbGUubWFlPic=

> <r_epik_Ionization_Penalty>
  0.0000

> <r_epik_Ionization_Penalty_Charging>
  0.0000

> <r_epik_Ionization_Penalty_Neutral>
  0.0000

> <r_epik_State_Penalty>
  0.0000

> <r_epik_Charging_Adjusted_Penalty>
0

> <i_epik_Tot_Q>
0

> <i_epik_Tot_abs_Q>
0

> <s_lp_Force_Field>
OPLS3e

> <r_lp_Energy>
43.444318

> <b_lp_Chiralities_Consistent>
1

> <s_lp_Variant>
CE_62086 -1

> <s_m_job_name>
ligprep_101

> <s_m_Source_Path>
/home/andre/Documents/projects/Esterase/data/FINAL_STUFF/Compounds/MAE_external

> <s_m_Source_File>
32.mae

> <i_m_Source_File_Index>
1

> <r_lp_tautomer_probability>
1

> <s_epik_Chemistry_Notes>
This compound has an ester and may undergo hydrolysis at high or low pH.

$$$$
