33
                    3D
 Schrodinger Suite 2021-1.
 82 88  0  0  1  0            999 V2000
   -0.3001    2.0331    1.5632 C   0  0  0  0  0  0
   -0.9537    2.4878    0.2495 C   0  0  0  0  0  0
   -2.0541    1.5393   -0.2249 C   0  0  0  0  0  0
   -3.4031    1.8232    0.0062 C   0  0  0  0  0  0
   -4.0702    2.9862    0.6898 C   0  0  0  0  0  0
   -5.4808    2.6273    0.5711 N   0  0  0  0  0  0
   -5.7015    1.4402   -0.0866 C   0  0  0  0  0  0
   -6.9323    0.9406   -0.3074 C   0  0  0  0  0  0
   -8.0893    1.6944    0.1749 C   0  0  0  0  0  0
   -7.8550    2.8563    0.8478 C   0  0  0  0  0  0
   -6.5017    3.3974    1.0691 C   0  0  0  0  0  0
   -6.2923    4.4582    1.6616 O   0  0  0  0  0  0
   -9.0312    3.6528    1.4170 C   0  0  0  0  0  0
  -10.2750    3.4683    0.7229 O   0  0  0  0  0  0
  -10.6079    2.3066    0.0835 C   0  0  0  0  0  0
  -11.7357    2.2781   -0.4100 O   0  0  0  0  0  0
   -9.5287    1.1915    0.0068 C   0  0  2  0  0  0
   -9.8431    0.0718    1.0478 C   0  0  0  0  0  0
   -9.7796    0.4726    2.5358 C   0  0  0  0  0  0
   -9.6772    0.5561   -1.2560 O   0  0  0  0  0  0
   -4.3681    0.9369   -0.4347 C   0  0  0  0  0  0
   -4.1053   -0.2177   -1.0886 N   0  0  0  0  0  0
   -2.8004   -0.5273   -1.3266 C   0  0  0  0  0  0
   -1.7220    0.3229   -0.9132 C   0  0  0  0  0  0
   -0.3923   -0.0890   -1.2093 C   0  0  0  0  0  0
   -0.1454   -1.2800   -1.8927 C   0  0  0  0  0  0
   -1.2040   -2.1008   -2.2760 C   0  0  0  0  0  0
   -2.5190   -1.7372   -2.0056 C   0  0  0  0  0  0
    1.1514   -1.6592   -2.1549 O   0  0  0  0  0  0
    1.7463   -1.2833   -3.3312 C   0  0  0  0  0  0
    1.1592   -0.6814   -4.2366 O   0  0  0  0  0  0
    3.0964   -1.6747   -3.3762 N   0  0  0  0  0  0
    3.7866   -2.3014   -2.2401 C   0  0  0  0  0  0
    4.5775   -1.1717   -1.5430 C   0  0  0  0  0  0
    5.4916   -0.3395   -2.4978 C   0  0  0  0  0  0
    4.7640   -0.0009   -3.8380 C   0  0  0  0  0  0
    3.9570   -1.1697   -4.4491 C   0  0  0  0  0  0
    5.9754    0.9650   -1.7836 N   0  3  0  0  0  0
    6.8217    1.8635   -2.7283 C   0  0  0  0  0  0
    7.2547    3.1458   -1.9970 C   0  0  0  0  0  0
    8.0286    2.8411   -0.7095 C   0  0  0  0  0  0
    7.2094    1.9306    0.2122 C   0  0  0  0  0  0
    6.7761    0.6340   -0.4931 C   0  0  0  0  0  0
    0.4660    2.7409    1.8802 H   0  0  0  0  0  0
    0.1754    1.0574    1.4611 H   0  0  0  0  0  0
   -1.0357    1.9625    2.3655 H   0  0  0  0  0  0
   -1.3743    3.4832    0.3969 H   0  0  0  0  0  0
   -0.2039    2.6135   -0.5321 H   0  0  0  0  0  0
   -3.7770    3.0783    1.7365 H   0  0  0  0  0  0
   -3.8672    3.9345    0.1907 H   0  0  0  0  0  0
   -7.0659    0.0018   -0.8255 H   0  0  0  0  0  0
   -9.1678    3.3974    2.4682 H   0  0  0  0  0  0
   -8.8153    4.7214    1.3855 H   0  0  0  0  0  0
  -10.8353   -0.3438    0.8573 H   0  0  0  0  0  0
   -9.1562   -0.7639    0.8988 H   0  0  0  0  0  0
  -10.0071   -0.3819    3.1738 H   0  0  0  0  0  0
  -10.4995    1.2555    2.7746 H   0  0  0  0  0  0
   -8.7877    0.8292    2.8138 H   0  0  0  0  0  0
   -9.4983    1.2004   -1.9451 H   0  0  0  0  0  0
    0.4450    0.5226   -0.9092 H   0  0  0  0  0  0
   -1.0050   -3.0275   -2.7945 H   0  0  0  0  0  0
   -3.3313   -2.3801   -2.3141 H   0  0  0  0  0  0
    3.1401   -2.8869   -1.5855 H   0  0  0  0  0  0
    4.5174   -2.9958   -2.6567 H   0  0  0  0  0  0
    3.8484   -0.5052   -1.0777 H   0  0  0  0  0  0
    5.1423   -1.5853   -0.7087 H   0  0  0  0  0  0
    6.3481   -0.9672   -2.7523 H   0  0  0  0  0  0
    4.0604    0.8154   -3.6620 H   0  0  0  0  0  0
    5.4595    0.3906   -4.5798 H   0  0  0  0  0  0
    4.6613   -1.9642   -4.6988 H   0  0  0  0  0  0
    3.4178   -0.9210   -5.3646 H   0  0  0  0  0  0
    7.6634    1.2674   -3.0849 H   0  0  0  0  0  0
    6.1874    2.1614   -3.5612 H   0  0  0  0  0  0
    7.8709    3.7531   -2.6610 H   0  0  0  0  0  0
    6.3750    3.7486   -1.7658 H   0  0  0  0  0  0
    8.9787    2.3628   -0.9531 H   0  0  0  0  0  0
    8.2766    3.7698   -0.1936 H   0  0  0  0  0  0
    7.7942    1.6849    1.0993 H   0  0  0  0  0  0
    6.3274    2.4641    0.5702 H   0  0  0  0  0  0
    6.1133    0.0984    0.1837 H   0  0  0  0  0  0
    7.6177    0.0012   -0.7795 H   0  0  0  0  0  0
    5.1599    1.4953   -1.5109 H   0  0  0  0  0  0
  1  2  1  0  0  0
  1 44  1  0  0  0
  1 45  1  0  0  0
  1 46  1  0  0  0
  2  3  1  0  0  0
  2 47  1  0  0  0
  2 48  1  0  0  0
  3 24  2  0  0  0
  3  4  1  0  0  0
  4 21  2  0  0  0
  4  5  1  0  0  0
  5  6  1  0  0  0
  5 49  1  0  0  0
  5 50  1  0  0  0
  6 11  1  0  0  0
  6  7  1  0  0  0
  7  8  2  0  0  0
  7 21  1  0  0  0
  8  9  1  0  0  0
  8 51  1  0  0  0
  9 17  1  0  0  0
  9 10  2  0  0  0
 10 11  1  0  0  0
 10 13  1  0  0  0
 11 12  2  0  0  0
 13 14  1  0  0  0
 13 52  1  0  0  0
 13 53  1  0  0  0
 14 15  1  0  0  0
 15 16  2  0  0  0
 15 17  1  0  0  0
 17 18  1  0  0  0
 17 20  1  0  0  0
 18 19  1  0  0  0
 18 54  1  0  0  0
 18 55  1  0  0  0
 19 56  1  0  0  0
 19 57  1  0  0  0
 19 58  1  0  0  0
 20 59  1  0  0  0
 21 22  1  0  0  0
 22 23  2  0  0  0
 23 28  1  0  0  0
 23 24  1  0  0  0
 24 25  1  0  0  0
 25 26  2  0  0  0
 25 60  1  0  0  0
 26 27  1  0  0  0
 26 29  1  0  0  0
 27 28  2  0  0  0
 27 61  1  0  0  0
 28 62  1  0  0  0
 29 30  1  0  0  0
 30 31  2  0  0  0
 30 32  1  0  0  0
 32 37  1  0  0  0
 32 33  1  0  0  0
 33 34  1  0  0  0
 33 63  1  0  0  0
 33 64  1  0  0  0
 34 35  1  0  0  0
 34 65  1  0  0  0
 34 66  1  0  0  0
 35 36  1  0  0  0
 35 38  1  0  0  0
 35 67  1  0  0  0
 36 37  1  0  0  0
 36 68  1  0  0  0
 36 69  1  0  0  0
 37 70  1  0  0  0
 37 71  1  0  0  0
 38 43  1  0  0  0
 38 39  1  0  0  0
 38 82  1  0  0  0
 39 40  1  0  0  0
 39 72  1  0  0  0
 39 73  1  0  0  0
 40 41  1  0  0  0
 40 74  1  0  0  0
 40 75  1  0  0  0
 41 42  1  0  0  0
 41 76  1  0  0  0
 41 77  1  0  0  0
 42 43  1  0  0  0
 42 78  1  0  0  0
 42 79  1  0  0  0
 43 80  1  0  0  0
 43 81  1  0  0  0
M  CHG  1  38   1
M  END
> <s_m_entry_id>
33

> <s_m_entry_name>
entry

> <i_lp_mmshare_version>
47013

> <i_f3d_flags>
0

> <s_epik_input>
W0NIMl0xT0MoPU8pW0NAXShbT0hdKShbQ0gyXVtDSDNdKWMoW2NIXTIpYzFjKD1PKW4oW0NIMl0zKWMyYyhjMzQpbmM1YyhjNFtDSDJdW0NIM10pW2NIXWMoW2NIXVtjSF01KU9DKD1PKU42W0NIMl1bQ0gyXVtDSF0oW0NIMl1bQ0gyXTYpTjdbQ0gyXVtDSDJdW0NIMl1bQ0gyXVtDSDJdNw==

> <s_epik_cmdline>
J2VwaWtfcHl0aG9uJywgJy1waCcsICc3LjQnLCAnLXRuJywgJzgnLCAnLW1hJywgJzIwMCcsICctaW1hZScsICc8aW5maWxlLm1hZT4nLCAnLW9tYWUnLCAnPG91dGZpbGUubWFlPic=

> <r_epik_Ionization_Penalty>
  0.0092

> <r_epik_Ionization_Penalty_Charging>
  0.0092

> <r_epik_Ionization_Penalty_Neutral>
  0.0001

> <r_epik_State_Penalty>
  0.0069

> <r_epik_Charging_Adjusted_Penalty>
0.016113165353993

> <i_epik_Tot_Q>
1

> <i_epik_Tot_abs_Q>
1

> <s_lp_Force_Field>
OPLS3e

> <r_lp_Energy>
82.046676

> <b_lp_Chiralities_Consistent>
1

> <s_lp_Variant>
60838-1

> <s_m_job_name>
ligprep_125

> <s_m_Source_Path>
/home/andre/Documents/projects/Esterase/data/FINAL_STUFF/Compounds/MAE_external

> <s_m_Source_File>
33.mae

> <i_m_Source_File_Index>
1

> <r_lp_tautomer_probability>
1

> <s_epik_Chemistry_Notes>
This compound has an ester and may undergo hydrolysis at high or low pH.

$$$$
