34
                    3D
 Schrodinger Suite 2021-1.
 88 90  0  0  1  0            999 V2000
   -1.7080   -1.3471    4.9201 C   0  0  0  0  0  0
   -3.1014   -1.5349    5.1431 O   0  0  0  0  0  0
   -4.0150   -0.9722    4.2690 C   0  0  0  0  0  0
   -3.6581   -0.2119    3.1445 C   0  0  0  0  0  0
   -4.6311    0.3269    2.2886 C   0  0  0  0  0  0
   -5.9809    0.0930    2.5823 C   0  0  0  0  0  0
   -6.3656   -0.6645    3.7001 C   0  0  0  0  0  0
   -5.3724   -1.1859    4.5385 C   0  0  0  0  0  0
   -5.7334   -1.9452    5.6260 O   0  0  0  0  0  0
   -5.9419   -1.1947    6.8144 C   0  0  0  0  0  0
   -7.6805   -0.9370    4.0350 O   0  0  0  0  0  0
   -8.7313   -0.4350    3.2166 C   0  0  0  0  0  0
   -4.2671    1.1302    1.0719 C   0  0  0  0  0  0
   -5.1005    1.6334    0.3131 O   0  0  0  0  0  0
   -2.9278    1.2284    0.8810 O   0  0  0  0  0  0
   -2.3869    1.8977   -0.2519 C   0  0  0  0  0  0
   -0.8526    1.8145   -0.2258 C   0  0  0  0  0  0
   -0.3254    0.3660   -0.2747 C   0  0  0  0  0  0
    1.2113    0.3089   -0.0809 N   0  3  2  0  0  0
    1.9655    1.0910   -1.1850 C   0  0  0  0  0  0
    3.4571    0.7440   -1.3310 C   0  0  0  0  0  0
    3.7160   -0.5303   -2.1612 C   0  0  0  0  0  0
    3.4136   -1.8282   -1.5576 N   0  0  2  0  0  0
    2.0668   -1.9961   -0.9980 C   0  0  0  0  0  0
    1.6932   -1.1307    0.2252 C   0  0  0  0  0  0
    4.5025   -2.2827   -0.6825 C   0  0  0  0  0  0
    4.3891   -3.7670   -0.2713 C   0  0  0  0  0  0
    5.6565   -4.3081    0.4190 C   0  0  0  0  0  0
    6.8054   -4.2624   -0.4250 O   0  0  0  0  0  0
    7.0196   -5.1817   -1.4059 C   0  0  0  0  0  0
    6.2599   -6.1290   -1.6271 O   0  0  0  0  0  0
    8.2787   -4.9323   -2.1868 C   0  0  0  0  0  0
    8.6449   -5.8209   -3.2063 C   0  0  0  0  0  0
    9.8117   -5.6260   -3.9621 C   0  0  0  0  0  0
   10.6227   -4.5195   -3.6817 C   0  0  0  0  0  0
   10.2789   -3.6095   -2.6745 C   0  0  0  0  0  0
    9.1067   -3.8281   -1.9334 C   0  0  0  0  0  0
   11.1328   -2.5393   -2.4730 O   0  0  0  0  0  0
   10.8388   -1.5899   -1.4541 C   0  0  0  0  0  0
   11.7605   -4.3097   -4.4239 O   0  0  0  0  0  0
   12.9234   -4.9257   -3.8874 C   0  0  0  0  0  0
   10.2240   -6.4670   -4.9808 O   0  0  0  0  0  0
    9.4444   -7.6134   -5.3020 C   0  0  0  0  0  0
   -1.1467   -1.8588    5.7017 H   0  0  0  0  0  0
   -1.4359   -0.2911    4.9568 H   0  0  0  0  0  0
   -1.3954   -1.7659    3.9623 H   0  0  0  0  0  0
   -2.6135   -0.0425    2.9331 H   0  0  0  0  0  0
   -6.7375    0.5010    1.9284 H   0  0  0  0  0  0
   -6.2174   -1.8699    7.6242 H   0  0  0  0  0  0
   -6.7498   -0.4707    6.6956 H   0  0  0  0  0  0
   -5.0383   -0.6631    7.1176 H   0  0  0  0  0  0
   -9.6899   -0.7497    3.6289 H   0  0  0  0  0  0
   -8.6671   -0.8242    2.1993 H   0  0  0  0  0  0
   -8.7279    0.6556    3.1855 H   0  0  0  0  0  0
   -2.7691    1.4484   -1.1702 H   0  0  0  0  0  0
   -2.7007    2.9429   -0.2458 H   0  0  0  0  0  0
   -0.4728    2.3774   -1.0783 H   0  0  0  0  0  0
   -0.4758    2.3166    0.6664 H   0  0  0  0  0  0
   -0.7443   -0.2120    0.5501 H   0  0  0  0  0  0
   -0.5432   -0.1407   -1.2163 H   0  0  0  0  0  0
    1.4261    0.9202   -2.1180 H   0  0  0  0  0  0
    1.8359    2.1337   -0.8936 H   0  0  0  0  0  0
    3.9589    1.5812   -1.8172 H   0  0  0  0  0  0
    3.9087    0.6520   -0.3426 H   0  0  0  0  0  0
    3.0423   -0.4696   -3.0173 H   0  0  0  0  0  0
    4.7185   -0.5213   -2.5925 H   0  0  0  0  0  0
    1.3364   -1.7649   -1.7746 H   0  0  0  0  0  0
    1.8654   -3.0469   -0.7888 H   0  0  0  0  0  0
    2.5246   -1.0282    0.9221 H   0  0  0  0  0  0
    0.9177   -1.6085    0.8247 H   0  0  0  0  0  0
    5.4637   -2.1324   -1.1771 H   0  0  0  0  0  0
    4.5482   -1.6593    0.2111 H   0  0  0  0  0  0
    3.5918   -3.8614    0.4665 H   0  0  0  0  0  0
    4.0953   -4.3912   -1.1166 H   0  0  0  0  0  0
    5.8685   -3.7061    1.3030 H   0  0  0  0  0  0
    5.4911   -5.3258    0.7774 H   0  0  0  0  0  0
    8.0123   -6.6719   -3.4116 H   0  0  0  0  0  0
    8.8371   -3.1310   -1.1548 H   0  0  0  0  0  0
   11.6155   -0.8257   -1.4391 H   0  0  0  0  0  0
   10.8166   -2.0565   -0.4681 H   0  0  0  0  0  0
    9.8867   -1.0893   -1.6364 H   0  0  0  0  0  0
   13.7737   -4.7235   -4.5386 H   0  0  0  0  0  0
   12.8087   -6.0087   -3.8173 H   0  0  0  0  0  0
   13.1628   -4.5353   -2.8969 H   0  0  0  0  0  0
    9.9197   -8.1522   -6.1216 H   0  0  0  0  0  0
    8.4404   -7.3368   -5.6274 H   0  0  0  0  0  0
    9.3723   -8.2978   -4.4553 H   0  0  0  0  0  0
    1.3873    0.8131    0.7769 H   0  0  0  0  0  0
  1  2  1  0  0  0
  1 44  1  0  0  0
  1 45  1  0  0  0
  1 46  1  0  0  0
  2  3  1  0  0  0
  3  8  1  0  0  0
  3  4  2  0  0  0
  4  5  1  0  0  0
  4 47  1  0  0  0
  5  6  2  0  0  0
  5 13  1  0  0  0
  6  7  1  0  0  0
  6 48  1  0  0  0
  7  8  2  0  0  0
  7 11  1  0  0  0
  8  9  1  0  0  0
  9 10  1  0  0  0
 10 49  1  0  0  0
 10 50  1  0  0  0
 10 51  1  0  0  0
 11 12  1  0  0  0
 12 52  1  0  0  0
 12 53  1  0  0  0
 12 54  1  0  0  0
 13 14  2  0  0  0
 13 15  1  0  0  0
 15 16  1  0  0  0
 16 17  1  0  0  0
 16 55  1  0  0  0
 16 56  1  0  0  0
 17 18  1  0  0  0
 17 57  1  0  0  0
 17 58  1  0  0  0
 18 19  1  0  0  0
 18 59  1  0  0  0
 18 60  1  0  0  0
 19 25  1  0  0  0
 19 20  1  0  0  0
 19 88  1  0  0  0
 20 21  1  0  0  0
 20 61  1  0  0  0
 20 62  1  0  0  0
 21 22  1  0  0  0
 21 63  1  0  0  0
 21 64  1  0  0  0
 22 23  1  0  0  0
 22 65  1  0  0  0
 22 66  1  0  0  0
 23 24  1  0  0  0
 23 26  1  0  0  0
 24 25  1  0  0  0
 24 67  1  0  0  0
 24 68  1  0  0  0
 25 69  1  0  0  0
 25 70  1  0  0  0
 26 27  1  0  0  0
 26 71  1  0  0  0
 26 72  1  0  0  0
 27 28  1  0  0  0
 27 73  1  0  0  0
 27 74  1  0  0  0
 28 29  1  0  0  0
 28 75  1  0  0  0
 28 76  1  0  0  0
 29 30  1  0  0  0
 30 31  2  0  0  0
 30 32  1  0  0  0
 32 37  1  0  0  0
 32 33  2  0  0  0
 33 34  1  0  0  0
 33 77  1  0  0  0
 34 35  2  0  0  0
 34 42  1  0  0  0
 35 36  1  0  0  0
 35 40  1  0  0  0
 36 37  2  0  0  0
 36 38  1  0  0  0
 37 78  1  0  0  0
 38 39  1  0  0  0
 39 79  1  0  0  0
 39 80  1  0  0  0
 39 81  1  0  0  0
 40 41  1  0  0  0
 41 82  1  0  0  0
 41 83  1  0  0  0
 41 84  1  0  0  0
 42 43  1  0  0  0
 43 85  1  0  0  0
 43 86  1  0  0  0
 43 87  1  0  0  0
M  CHG  1  19   1
M  END
> <s_m_entry_id>
34

> <s_m_entry_name>
COC1=CC(=CC(=C1OC)OC)C(=O)OCCCN2CCCN(CC2)CCCOC(=O)C3=CC(=C(C(=C3)OC)OC)OC

> <i_lp_mmshare_version>
47013

> <i_f3d_flags>
0

> <s_epik_input>
W0NIM11PYzFjKE9bQ0gzXSlbY0hdYyhbY0hdYzFPW0NIM10pQyg9TylPW0NIMl1bQ0gyXVtDSDJdTjJbQ0gyXVtDSDJdW0NIMl1OKFtDSDJdW0NIMl0yKVtDSDJdW0NIMl1bQ0gyXU9DKD1PKWMzW2NIXWMoT1tDSDNdKWMoT1tDSDNdKWMoW2NIXTMpT1tDSDNd

> <s_epik_cmdline>
J2VwaWtfcHl0aG9uJywgJy1waCcsICc3LjQnLCAnLXRuJywgJzgnLCAnLW1hJywgJzIwMCcsICctaW1hZScsICc8aW5maWxlLm1hZT4nLCAnLW9tYWUnLCAnPG91dGZpbGUubWFlPic=

> <r_epik_Ionization_Penalty>
  0.0094

> <r_epik_Ionization_Penalty_Charging>
  0.0090

> <r_epik_Ionization_Penalty_Neutral>
  0.0003

> <r_epik_State_Penalty>
  0.0068

> <r_epik_Charging_Adjusted_Penalty>
0.0158171569924227

> <i_epik_Tot_Q>
1

> <i_epik_Tot_abs_Q>
1

> <s_lp_Force_Field>
OPLS3e

> <r_lp_Energy>
66.546989

> <b_lp_Chiralities_Consistent>
1

> <s_lp_Variant>
CE_3074-1

> <s_m_job_name>
ligprep_102

> <s_m_Source_Path>
/home/andre/Documents/projects/Esterase/data/FINAL_STUFF/Compounds/MAE_external

> <s_m_Source_File>
34.mae

> <i_m_Source_File_Index>
1

> <s_epik_Chemistry_Notes>
This compound has an ester and may undergo hydrolysis at high or low pH.

$$$$
