35
                    3D
 Schrodinger Suite 2021-1.
 51 52  0  0  1  0            999 V2000
   -1.1037    8.4503   -1.0976 C   0  0  0  0  0  0
   -0.6295    8.1145    0.3383 C   0  0  0  0  0  0
    0.5265    9.0816    0.7103 C   0  0  0  0  0  0
   -1.7883    8.3295    1.3437 C   0  0  0  0  0  0
   -0.1544    6.6355    0.3959 C   0  0  0  0  0  0
    1.0075    6.3302    0.6860 O   0  0  0  0  0  0
   -1.1525    5.7509    0.0937 O   0  0  0  0  0  0
   -0.8872    4.4010    0.0956 C   0  0  0  0  0  0
   -1.0057    3.6658    1.2782 C   0  0  0  0  0  0
   -0.7547    2.2966    1.2731 C   0  0  0  0  0  0
   -0.3996    1.6626    0.0806 C   0  0  0  0  0  0
   -0.2877    2.3935   -1.1034 C   0  0  0  0  0  0
   -0.5366    3.7628   -1.0964 C   0  0  0  0  0  0
   -0.0586   -0.0919    0.0596 S   0  0  0  0  0  0
   -0.5172   -0.6736    1.3269 O   0  0  0  0  0  0
   -0.5304   -0.6311   -1.2212 O   0  0  0  0  0  0
    1.7114   -0.2071    0.0458 N   0  0  0  0  0  0
    2.4424   -1.4081   -0.0451 C   0  0  0  0  0  0
    1.7735   -2.6400    0.0332 C   0  0  0  0  0  0
    2.4699   -3.8423   -0.0338 C   0  0  0  0  0  0
    3.8508   -3.8352   -0.1796 C   0  0  0  0  0  0
    4.5334   -2.6253   -0.2601 C   0  0  0  0  0  0
    3.8549   -1.3934   -0.1950 C   0  0  0  0  0  0
    4.6532   -0.1022   -0.3158 C   0  0  0  0  0  0
    4.1493    0.9258   -0.7739 O   0  0  0  0  0  0
    5.9347   -0.1539    0.1037 N   0  0  0  0  0  0
    6.9027    0.9512    0.0510 C   0  0  0  0  0  0
    7.5795    1.1089   -1.3272 C   0  0  0  0  0  0
    8.3453    2.0899   -1.4497 O   0  0  0  0  0  0
    7.3528    0.2679   -2.2277 O   0  5  0  0  0  0
   -1.4187    9.4920   -1.1750 H   0  0  0  0  0  0
   -1.9577    7.8432   -1.4024 H   0  0  0  0  0  0
   -0.3114    8.3022   -1.8335 H   0  0  0  0  0  0
    1.3709    8.9922    0.0244 H   0  0  0  0  0  0
    0.8990    8.9032    1.7206 H   0  0  0  0  0  0
    0.2000   10.1219    0.6738 H   0  0  0  0  0  0
   -2.1217    9.3683    1.3445 H   0  0  0  0  0  0
   -1.4901    8.0904    2.3662 H   0  0  0  0  0  0
   -2.6623    7.7224    1.1019 H   0  0  0  0  0  0
   -1.2856    4.1571    2.1988 H   0  0  0  0  0  0
   -0.8386    1.7370    2.1932 H   0  0  0  0  0  0
   -0.0058    1.9049   -2.0249 H   0  0  0  0  0  0
   -0.4522    4.3286   -2.0127 H   0  0  0  0  0  0
    2.2349    0.6543   -0.0191 H   0  0  0  0  0  0
    0.7019   -2.6896    0.1502 H   0  0  0  0  0  0
    1.9367   -4.7795    0.0265 H   0  0  0  0  0  0
    4.3936   -4.7671   -0.2363 H   0  0  0  0  0  0
    5.6057   -2.6634   -0.3905 H   0  0  0  0  0  0
    6.2584   -1.0034    0.5417 H   0  0  0  0  0  0
    6.4202    1.8874    0.3394 H   0  0  0  0  0  0
    7.6747    0.7453    0.7928 H   0  0  0  0  0  0
  1  2  1  0  0  0
  1 31  1  0  0  0
  1 32  1  0  0  0
  1 33  1  0  0  0
  2  3  1  0  0  0
  2  4  1  0  0  0
  2  5  1  0  0  0
  3 34  1  0  0  0
  3 35  1  0  0  0
  3 36  1  0  0  0
  4 37  1  0  0  0
  4 38  1  0  0  0
  4 39  1  0  0  0
  5  6  2  0  0  0
  5  7  1  0  0  0
  7  8  1  0  0  0
  8 13  1  0  0  0
  8  9  2  0  0  0
  9 10  1  0  0  0
  9 40  1  0  0  0
 10 11  2  0  0  0
 10 41  1  0  0  0
 11 12  1  0  0  0
 11 14  1  0  0  0
 12 13  2  0  0  0
 12 42  1  0  0  0
 13 43  1  0  0  0
 14 15  2  0  0  0
 14 16  2  0  0  0
 14 17  1  0  0  0
 17 18  1  0  0  0
 17 44  1  0  0  0
 18 23  1  0  0  0
 18 19  2  0  0  0
 19 20  1  0  0  0
 19 45  1  0  0  0
 20 21  2  0  0  0
 20 46  1  0  0  0
 21 22  1  0  0  0
 21 47  1  0  0  0
 22 23  2  0  0  0
 22 48  1  0  0  0
 23 24  1  0  0  0
 24 25  2  0  0  0
 24 26  1  0  0  0
 26 27  1  0  0  0
 26 49  1  0  0  0
 27 28  1  0  0  0
 27 50  1  0  0  0
 27 51  1  0  0  0
 28 29  2  0  0  0
 28 30  1  0  0  0
M  CHG  1  30  -1
M  END
> <s_m_entry_id>
35

> <s_m_entry_name>
CC(C)(C)C(=O)OC1=CC=C(C=C1)S(=O)(=O)NC2=CC=CC=C2C(=O)NCC(=O)O

> <i_lp_mmshare_version>
47013

> <i_f3d_flags>
0

> <s_epik_input>
W0NIM11DKFtDSDNdKShbQ0gzXSlDKD1PKU9jMVtjSF1bY0hdYyhbY0hdW2NIXTEpUyg9TykoPU8pW05IXWMyW2NIXVtjSF1bY0hdW2NIXWMyQyg9TylbTkhdW0NIMl1DKD1PKVtPSF0=

> <s_epik_cmdline>
J2VwaWtfcHl0aG9uJywgJy1waCcsICc3LjQnLCAnLXRuJywgJzgnLCAnLW1hJywgJzIwMCcsICctaW1hZScsICc8aW5maWxlLm1hZT4nLCAnLW9tYWUnLCAnPG91dGZpbGUubWFlPic=

> <r_epik_Ionization_Penalty>
  0.0837

> <r_epik_Ionization_Penalty_Charging>
  0.0001

> <r_epik_Ionization_Penalty_Neutral>
  0.0836

> <r_epik_State_Penalty>
  0.0742

> <r_epik_Charging_Adjusted_Penalty>
0.0743307931782448

> <i_epik_Tot_Q>
-1

> <i_epik_Tot_abs_Q>
1

> <s_lp_Force_Field>
OPLS3e

> <r_lp_Energy>
35.016286

> <b_lp_Chiralities_Consistent>
1

> <s_lp_Variant>
CE_107706-1

> <s_m_job_name>
ligprep_102

> <s_m_Source_Path>
/home/andre/Documents/projects/Esterase/data/FINAL_STUFF/Compounds/MAE_external

> <s_m_Source_File>
35.mae

> <i_m_Source_File_Index>
1

$$$$
