37
                    3D
 Schrodinger Suite 2021-1.
 60 62  0  0  1  0            999 V2000
   -1.6815   -3.0185    0.9271 C   0  0  0  0  0  0
   -1.4348   -1.7849    0.0529 C   0  0  0  0  0  0
   -0.1409   -1.2656    0.3278 O   0  0  0  0  0  0
    0.2975   -0.1412   -0.2795 C   0  0  0  0  0  0
   -0.3512    0.5252   -1.0926 O   0  0  0  0  0  0
    1.7028    0.2208    0.1857 C   0  0  2  0  0  0
    1.6490    1.0630    1.4848 C   0  0  0  0  0  0
    1.2669    0.2741    2.7554 C   0  0  0  0  0  0
    1.4568    1.0846    4.0288 C   0  0  0  0  0  0
    2.6964    1.0828    4.6747 C   0  0  0  0  0  0
    2.8753    1.8289    5.8366 C   0  0  0  0  0  0
    1.8147    2.5742    6.3482 C   0  0  0  0  0  0
    0.5770    2.5814    5.7077 C   0  0  0  0  0  0
    0.3973    1.8356    4.5454 C   0  0  0  0  0  0
    2.4362    0.9783   -0.8618 N   0  0  1  0  0  0
    2.8792    0.2688   -2.0725 C   0  0  1  0  0  0
    3.3457    1.2592   -3.1644 C   0  0  0  0  0  0
    4.3525    2.3465   -2.7395 C   0  0  0  0  0  0
    5.2779    1.9906   -1.5632 C   0  0  0  0  0  0
    5.8576    0.6518   -1.5514 N   0  0  2  0  0  0
    6.7449    0.2376   -2.6410 C   0  0  0  0  0  0
    7.6949   -0.8607   -2.1107 C   0  0  0  0  0  0
    6.9454   -2.0008   -1.3824 C   0  0  0  0  0  0
    5.8567   -1.4930   -0.3776 C   0  0  2  0  0  0
    5.0553   -0.4557   -1.0885 N   0  0  0  0  0  0
    3.8992   -0.8485   -1.7145 C   0  0  0  0  0  0
    3.6060   -2.0253   -1.9439 O   0  0  0  0  0  0
    6.4348   -0.9516    0.9584 C   0  0  0  0  0  0
    7.6038   -1.2671    1.2760 O   0  0  0  0  0  0
    5.6759   -0.2532    1.6691 O   0  5  0  0  0  0
   -2.6723   -3.4328    0.7408 H   0  0  0  0  0  0
   -1.6187   -2.7702    1.9873 H   0  0  0  0  0  0
   -0.9498   -3.8005    0.7208 H   0  0  0  0  0  0
   -1.5117   -2.0531   -1.0020 H   0  0  0  0  0  0
   -2.1938   -1.0277    0.2571 H   0  0  0  0  0  0
    2.2492   -0.6968    0.4084 H   0  0  0  0  0  0
    2.6426    1.4824    1.6593 H   0  0  0  0  0  0
    1.0039    1.9372    1.3738 H   0  0  0  0  0  0
    0.2309   -0.0630    2.7002 H   0  0  0  0  0  0
    1.8593   -0.6402    2.8223 H   0  0  0  0  0  0
    3.5201    0.5080    4.2750 H   0  0  0  0  0  0
    3.8324    1.8309    6.3375 H   0  0  0  0  0  0
    1.9540    3.1528    7.2495 H   0  0  0  0  0  0
   -0.2388    3.1636    6.1101 H   0  0  0  0  0  0
   -0.5617    1.8436    4.0479 H   0  0  0  0  0  0
    1.9929    1.8575   -1.0863 H   0  0  0  0  0  0
    2.0051   -0.2329   -2.4924 H   0  0  0  0  0  0
    3.7779    0.6889   -3.9886 H   0  0  0  0  0  0
    2.4731    1.7502   -3.5983 H   0  0  0  0  0  0
    4.9465    2.6698   -3.5953 H   0  0  0  0  0  0
    3.7959    3.2388   -2.4499 H   0  0  0  0  0  0
    6.1190    2.6848   -1.5744 H   0  0  0  0  0  0
    4.7757    2.1685   -0.6118 H   0  0  0  0  0  0
    6.1629   -0.1146   -3.4940 H   0  0  0  0  0  0
    7.3310    1.0959   -2.9717 H   0  0  0  0  0  0
    8.2655   -1.2751   -2.9423 H   0  0  0  0  0  0
    8.4421   -0.4093   -1.4562 H   0  0  0  0  0  0
    6.4489   -2.6113   -2.1384 H   0  0  0  0  0  0
    7.6544   -2.6750   -0.8996 H   0  0  0  0  0  0
    5.2496   -2.3348   -0.0365 H   0  0  0  0  0  0
  1  2  1  0  0  0
  1 31  1  0  0  0
  1 32  1  0  0  0
  1 33  1  0  0  0
  2  3  1  0  0  0
  2 34  1  0  0  0
  2 35  1  0  0  0
  3  4  1  0  0  0
  4  5  2  0  0  0
  4  6  1  0  0  0
  6  7  1  0  0  0
  6 15  1  0  0  0
  6 36  1  0  0  0
  7  8  1  0  0  0
  7 37  1  0  0  0
  7 38  1  0  0  0
  8  9  1  0  0  0
  8 39  1  0  0  0
  8 40  1  0  0  0
  9 14  1  0  0  0
  9 10  2  0  0  0
 10 11  1  0  0  0
 10 41  1  0  0  0
 11 12  2  0  0  0
 11 42  1  0  0  0
 12 13  1  0  0  0
 12 43  1  0  0  0
 13 14  2  0  0  0
 13 44  1  0  0  0
 14 45  1  0  0  0
 15 16  1  0  0  0
 15 46  1  0  0  0
 16 26  1  0  0  0
 16 17  1  0  0  0
 16 47  1  0  0  0
 17 18  1  0  0  0
 17 48  1  0  0  0
 17 49  1  0  0  0
 18 19  1  0  0  0
 18 50  1  0  0  0
 18 51  1  0  0  0
 19 20  1  0  0  0
 19 52  1  0  0  0
 19 53  1  0  0  0
 20 25  1  0  0  0
 20 21  1  0  0  0
 21 22  1  0  0  0
 21 54  1  0  0  0
 21 55  1  0  0  0
 22 23  1  0  0  0
 22 56  1  0  0  0
 22 57  1  0  0  0
 23 24  1  0  0  0
 23 58  1  0  0  0
 23 59  1  0  0  0
 24 25  1  0  0  0
 24 28  1  0  0  0
 24 60  1  0  0  0
 25 26  1  0  0  0
 26 27  2  0  0  0
 28 29  2  0  0  0
 28 30  1  0  0  0
M  CHG  1  30  -1
M  END
> <s_m_entry_id>
37

> <s_m_entry_name>
entry

> <i_lp_mmshare_version>
47013

> <i_f3d_flags>
0

> <s_epik_input>
W0NIMl0xW0NIMl1bQ0gyXVtDQEBIXShDKD1PKVtPSF0pTihOMTIpQyg9TylbQ0BIXShbQ0gyXVtDSDJdW0NIMl0yKVtOSF1bQ0BIXShDKD1PKU9bQ0gyXVtDSDNdKVtDSDJdW0NIMl1jM1tjSF1bY0hdW2NIXVtjSF1bY0hdMw==

> <s_epik_cmdline>
J2VwaWtfcHl0aG9uJywgJy1waCcsICc3LjQnLCAnLXRuJywgJzgnLCAnLW1hJywgJzIwMCcsICctaW1hZScsICc8aW5maWxlLm1hZT4nLCAnLW9tYWUnLCAnPG91dGZpbGUubWFlPic=

> <r_epik_Ionization_Penalty>
  0.1112

> <r_epik_Ionization_Penalty_Charging>
  0.0001

> <r_epik_Ionization_Penalty_Neutral>
  0.1111

> <r_epik_State_Penalty>
  0.1008

> <r_epik_Charging_Adjusted_Penalty>
0.100890432197818

> <i_epik_Tot_Q>
-1

> <i_epik_Tot_abs_Q>
1

> <s_lp_Force_Field>
OPLS3e

> <r_lp_Energy>
54.029844

> <b_lp_Chiralities_Consistent>
1

> <s_lp_Variant>
CE_56330-1

> <s_m_job_name>
ligprep_104

> <s_m_Source_Path>
/home/andre/Documents/projects/Esterase/data/FINAL_STUFF/Compounds/MAE_external

> <s_m_Source_File>
37.mae

> <i_m_Source_File_Index>
1

> <s_epik_Chemistry_Notes>
This compound has an ester and may undergo hydrolysis at high or low pH.

$$$$
