4
                    3D
 Schrodinger Suite 2021-1.
 64 66  0  0  1  0            999 V2000
   -3.5990   -2.7843   -0.7362 C   0  0  0  0  0  0
   -2.5729   -2.1437   -1.6755 C   0  0  0  0  0  0
   -1.6241   -1.4201   -0.9048 O   0  0  0  0  0  0
   -0.5391   -0.8637   -1.4847 C   0  0  0  0  0  0
   -0.2880   -0.8854   -2.6941 O   0  0  0  0  0  0
    0.3467   -0.1951   -0.4428 C   0  0  2  0  0  0
   -0.2027    1.2159   -0.1235 C   0  0  0  0  0  0
    0.5052    1.8922    1.0682 C   0  0  0  0  0  0
   -0.0814    3.2551    1.4047 C   0  0  0  0  0  0
    0.4311    4.4042    0.7966 C   0  0  0  0  0  0
   -0.1099    5.6509    1.1002 C   0  0  0  0  0  0
   -1.1612    5.7439    2.0100 C   0  0  0  0  0  0
   -1.6773    4.6016    2.6188 C   0  0  0  0  0  0
   -1.1370    3.3546    2.3152 C   0  0  0  0  0  0
    1.7558   -0.1255   -0.9123 N   0  0  1  0  0  0
    2.5282   -1.3883   -0.7928 C   0  0  1  0  0  0
    3.8267   -1.3607   -1.6184 C   0  0  0  0  0  0
    2.8431   -1.6496    0.7095 C   0  0  0  0  0  0
    3.3483   -0.7259    1.3552 O   0  0  0  0  0  0
    2.5645   -2.8655    1.2579 N   0  0  0  0  0  0
    2.9002   -3.1960    2.6560 C   0  0  1  0  0  0
    2.4357   -2.3739    3.8776 C   0  0  0  0  0  0
    3.0639   -2.9786    5.1677 C   0  0  0  0  0  0
    2.9697   -4.5302    5.2787 C   0  0  0  0  0  0
    3.3414   -5.2577    3.9600 C   0  0  0  0  0  0
    2.4928   -4.6573    2.8319 C   0  0  2  0  0  0
    2.5603   -5.2172    1.4218 C   0  0  0  0  0  0
    2.0662   -4.0624    0.5328 C   0  0  1  0  0  0
    0.5343   -3.9968    0.3136 C   0  0  0  0  0  0
    0.1073   -4.4706   -0.7619 O   0  0  0  0  0  0
   -0.1843   -3.4956    1.2085 O   0  5  0  0  0  0
   -4.3417   -3.3486   -1.3001 H   0  0  0  0  0  0
   -4.1257   -2.0290   -0.1524 H   0  0  0  0  0  0
   -3.1167   -3.4718   -0.0402 H   0  0  0  0  0  0
   -2.0726   -2.9195   -2.2575 H   0  0  0  0  0  0
   -3.0706   -1.4724   -2.3769 H   0  0  0  0  0  0
    0.2915   -0.7765    0.4790 H   0  0  0  0  0  0
   -0.1414    1.8648   -0.9996 H   0  0  0  0  0  0
   -1.2683    1.1627    0.1107 H   0  0  0  0  0  0
    0.4534    1.2491    1.9485 H   0  0  0  0  0  0
    1.5715    2.0041    0.8654 H   0  0  0  0  0  0
    1.2449    4.3318    0.0898 H   0  0  0  0  0  0
    0.2833    6.5413    0.6322 H   0  0  0  0  0  0
   -1.5800    6.7113    2.2450 H   0  0  0  0  0  0
   -2.4927    4.6825    3.3223 H   0  0  0  0  0  0
   -1.5390    2.4683    2.7845 H   0  0  0  0  0  0
    1.7887    0.2187   -1.8611 H   0  0  0  0  0  0
    1.9403   -2.1969   -1.2208 H   0  0  0  0  0  0
    4.3687   -2.3045   -1.5403 H   0  0  0  0  0  0
    4.4988   -0.5649   -1.2934 H   0  0  0  0  0  0
    3.6132   -1.1979   -2.6755 H   0  0  0  0  0  0
    3.9899   -3.1213    2.6754 H   0  0  0  0  0  0
    2.7296   -1.3286    3.7873 H   0  0  0  0  0  0
    1.3466   -2.3846    3.9420 H   0  0  0  0  0  0
    4.1186   -2.7002    5.1947 H   0  0  0  0  0  0
    2.6155   -2.5168    6.0480 H   0  0  0  0  0  0
    3.6070   -4.8837    6.0900 H   0  0  0  0  0  0
    1.9509   -4.8020    5.5595 H   0  0  0  0  0  0
    4.4057   -5.1843    3.7309 H   0  0  0  0  0  0
    3.1473   -6.3279    4.0397 H   0  0  0  0  0  0
    1.4507   -4.6840    3.1613 H   0  0  0  0  0  0
    3.6022   -5.4221    1.1680 H   0  0  0  0  0  0
    2.0235   -6.1597    1.3040 H   0  0  0  0  0  0
    2.5499   -4.1433   -0.4417 H   0  0  0  0  0  0
  1  2  1  0  0  0
  1 32  1  0  0  0
  1 33  1  0  0  0
  1 34  1  0  0  0
  2  3  1  0  0  0
  2 35  1  0  0  0
  2 36  1  0  0  0
  3  4  1  0  0  0
  4  5  2  0  0  0
  4  6  1  0  0  0
  6  7  1  0  0  0
  6 15  1  0  0  0
  6 37  1  0  0  0
  7  8  1  0  0  0
  7 38  1  0  0  0
  7 39  1  0  0  0
  8  9  1  0  0  0
  8 40  1  0  0  0
  8 41  1  0  0  0
  9 10  2  0  0  0
  9 14  1  0  0  0
 10 11  1  0  0  0
 10 42  1  0  0  0
 11 12  2  0  0  0
 11 43  1  0  0  0
 12 13  1  0  0  0
 12 44  1  0  0  0
 13 14  2  0  0  0
 13 45  1  0  0  0
 14 46  1  0  0  0
 15 16  1  0  0  0
 15 47  1  0  0  0
 16 17  1  0  0  0
 16 18  1  0  0  0
 16 48  1  0  0  0
 17 49  1  0  0  0
 17 50  1  0  0  0
 17 51  1  0  0  0
 18 19  2  0  0  0
 18 20  1  0  0  0
 20 21  1  0  0  0
 20 28  1  0  0  0
 21 22  1  0  0  0
 21 26  1  0  0  0
 21 52  1  0  0  0
 22 23  1  0  0  0
 22 53  1  0  0  0
 22 54  1  0  0  0
 23 24  1  0  0  0
 23 55  1  0  0  0
 23 56  1  0  0  0
 24 25  1  0  0  0
 24 57  1  0  0  0
 24 58  1  0  0  0
 25 26  1  0  0  0
 25 59  1  0  0  0
 25 60  1  0  0  0
 26 27  1  0  0  0
 26 61  1  0  0  0
 27 28  1  0  0  0
 27 62  1  0  0  0
 27 63  1  0  0  0
 28 29  1  0  0  0
 28 64  1  0  0  0
 29 30  2  0  0  0
 29 31  1  0  0  0
M  CHG  1  31  -1
M  END
> <s_m_entry_id>
4

> <s_m_entry_name>
5484727.1

> <i_lp_mmshare_version>
47013

> <i_f3d_flags>
0

> <s_epik_input>
W2NIXTFbY0hdW2NIXVtjSF1bY0hdYzFbQ0gyXVtDSDJdW0NAQEhdKEMoPU8pT1tDSDJdW0NIM10pW05IXVtDQEBIXShbQ0gzXSlDKD1PKU4yW0NASF0oQyg9TylbT0hdKVtDSDJdW0NASF0oW0NAQEhdMjMpW0NIMl1bQ0gyXVtDSDJdW0NIMl0z

> <s_epik_cmdline>
J2VwaWtfcHl0aG9uJywgJy1waCcsICc3LjQnLCAnLXRuJywgJzgnLCAnLW1hJywgJzIwMCcsICctaW1hZScsICc8aW5maWxlLm1hZT4nLCAnLW9tYWUnLCAnPG91dGZpbGUubWFlPic=

> <r_epik_Ionization_Penalty>
  0.0945

> <r_epik_Ionization_Penalty_Charging>
  0.0002

> <r_epik_Ionization_Penalty_Neutral>
  0.0943

> <r_epik_State_Penalty>
  0.0846

> <r_epik_Charging_Adjusted_Penalty>
0.0847627558211888

> <i_epik_Tot_Q>
-1

> <i_epik_Tot_abs_Q>
1

> <s_lp_Force_Field>
OPLS3e

> <r_lp_Energy>
40.557023

> <b_lp_Chiralities_Consistent>
1

> <s_lp_Variant>
CE1_5484727-1

> <s_m_job_name>
ligprep_25

> <s_m_Source_Path>
/home/andre/Documents/projects/Esterase/data/FINAL_STUFF/Compounds/MAE_external

> <s_m_Source_File>
4.mae

> <i_m_Source_File_Index>
1

> <s_epik_Chemistry_Notes>
This compound has an ester and may undergo hydrolysis at high or low pH.

$$$$
