40
                    3D
 Schrodinger Suite 2021-1.
 64 66  0  0  1  0            999 V2000
    1.5689   -0.2478   -4.8362 C   0  0  0  0  0  0
    0.3752   -0.7828   -4.0395 C   0  0  0  0  0  0
    0.5899   -0.5483   -2.6544 O   0  0  0  0  0  0
   -0.3335   -0.9300   -1.7321 C   0  0  0  0  0  0
   -1.4102   -1.4675   -2.0015 O   0  0  0  0  0  0
    0.0511   -0.5831   -0.2990 C   0  0  2  0  0  0
   -0.4692    0.8301    0.0772 C   0  0  0  0  0  0
   -2.0054    0.9589    0.1718 C   0  0  0  0  0  0
   -2.4505    2.2556    0.8345 C   0  0  0  0  0  0
   -2.3044    3.4701    0.1587 C   0  0  0  0  0  0
   -2.6972    4.6579    0.7705 C   0  0  0  0  0  0
   -3.2377    4.6268    2.0544 C   0  0  0  0  0  0
   -3.3887    3.4191    2.7326 C   0  0  0  0  0  0
   -2.9953    2.2315    2.1215 C   0  0  0  0  0  0
    1.5153   -0.7627   -0.1008 N   0  0  1  0  0  0
    1.9180   -1.3886    1.1855 C   0  0  1  0  0  0
    3.3397   -1.9757    1.1208 C   0  0  0  0  0  0
    1.8210   -0.3435    2.3368 C   0  0  0  0  0  0
    2.3091    0.7691    2.1210 O   0  0  0  0  0  0
    1.2027   -0.6701    3.5129 N   0  0  0  0  0  0
    0.7468   -2.0431    3.8322 C   0  0  0  0  0  0
   -0.7136   -2.3274    3.4229 C   0  0  0  0  0  0
   -1.1208   -3.4889    3.6414 O   0  0  0  0  0  0
   -1.4002   -1.4166    2.9061 O   0  5  0  0  0  0
    0.9326    0.3033    4.6085 C   0  0  0  0  0  0
   -0.0534    1.4225    4.2331 C   0  0  0  0  0  0
    0.8191    2.6482    4.0794 C   0  0  0  0  0  0
    0.4888    3.9127    3.5895 C   0  0  0  0  0  0
    1.4333    4.9394    3.6266 C   0  0  0  0  0  0
    2.6934    4.7120    4.1828 C   0  0  0  0  0  0
    3.0144    3.4563    4.7016 C   0  0  0  0  0  0
    2.0834    2.4183    4.6332 C   0  0  0  0  0  0
    2.1688    1.0119    5.1915 C   0  0  0  0  0  0
    1.4282   -0.4164   -5.9041 H   0  0  0  0  0  0
    2.4947   -0.7426   -4.5405 H   0  0  0  0  0  0
    1.6966    0.8244   -4.6828 H   0  0  0  0  0  0
   -0.5412   -0.2873   -4.3643 H   0  0  0  0  0  0
    0.2547   -1.8518   -4.2222 H   0  0  0  0  0  0
   -0.4697   -1.3124    0.3233 H   0  0  0  0  0  0
   -0.0761    1.1034    1.0536 H   0  0  0  0  0  0
   -0.0655    1.5915   -0.5926 H   0  0  0  0  0  0
   -2.4509    0.9077   -0.8224 H   0  0  0  0  0  0
   -2.4174    0.1072    0.7160 H   0  0  0  0  0  0
   -1.8820    3.4938   -0.8353 H   0  0  0  0  0  0
   -2.5814    5.5987    0.2532 H   0  0  0  0  0  0
   -3.5404    5.5481    2.5297 H   0  0  0  0  0  0
   -3.8051    3.4038    3.7289 H   0  0  0  0  0  0
   -3.1075    1.2960    2.6509 H   0  0  0  0  0  0
    1.8858   -1.3176   -0.8586 H   0  0  0  0  0  0
    1.2621   -2.2404    1.3557 H   0  0  0  0  0  0
    3.6107   -2.4709    2.0545 H   0  0  0  0  0  0
    4.0887   -1.2062    0.9258 H   0  0  0  0  0  0
    3.4203   -2.7189    0.3268 H   0  0  0  0  0  0
    1.4188   -2.7760    3.3857 H   0  0  0  0  0  0
    0.8527   -2.2060    4.9052 H   0  0  0  0  0  0
    0.4727   -0.2430    5.4334 H   0  0  0  0  0  0
   -0.6600    1.1783    3.3620 H   0  0  0  0  0  0
   -0.7473    1.5899    5.0575 H   0  0  0  0  0  0
   -0.4914    4.1072    3.1808 H   0  0  0  0  0  0
    1.1833    5.9158    3.2382 H   0  0  0  0  0  0
    3.4167    5.5131    4.2242 H   0  0  0  0  0  0
    3.9840    3.2996    5.1505 H   0  0  0  0  0  0
    2.0788    1.0638    6.2773 H   0  0  0  0  0  0
    3.0992    0.4850    4.9760 H   0  0  0  0  0  0
  1  2  1  0  0  0
  1 34  1  0  0  0
  1 35  1  0  0  0
  1 36  1  0  0  0
  2  3  1  0  0  0
  2 37  1  0  0  0
  2 38  1  0  0  0
  3  4  1  0  0  0
  4  5  2  0  0  0
  4  6  1  0  0  0
  6  7  1  0  0  0
  6 15  1  0  0  0
  6 39  1  0  0  0
  7  8  1  0  0  0
  7 40  1  0  0  0
  7 41  1  0  0  0
  8  9  1  0  0  0
  8 42  1  0  0  0
  8 43  1  0  0  0
  9 14  1  0  0  0
  9 10  2  0  0  0
 10 11  1  0  0  0
 10 44  1  0  0  0
 11 12  2  0  0  0
 11 45  1  0  0  0
 12 13  1  0  0  0
 12 46  1  0  0  0
 13 14  2  0  0  0
 13 47  1  0  0  0
 14 48  1  0  0  0
 15 16  1  0  0  0
 15 49  1  0  0  0
 16 17  1  0  0  0
 16 18  1  0  0  0
 16 50  1  0  0  0
 17 51  1  0  0  0
 17 52  1  0  0  0
 17 53  1  0  0  0
 18 19  2  0  0  0
 18 20  1  0  0  0
 20 21  1  0  0  0
 20 25  1  0  0  0
 21 22  1  0  0  0
 21 54  1  0  0  0
 21 55  1  0  0  0
 22 23  2  0  0  0
 22 24  1  0  0  0
 25 33  1  0  0  0
 25 26  1  0  0  0
 25 56  1  0  0  0
 26 27  1  0  0  0
 26 57  1  0  0  0
 26 58  1  0  0  0
 27 32  2  0  0  0
 27 28  1  0  0  0
 28 29  2  0  0  0
 28 59  1  0  0  0
 29 30  1  0  0  0
 29 60  1  0  0  0
 30 31  2  0  0  0
 30 61  1  0  0  0
 31 32  1  0  0  0
 31 62  1  0  0  0
 32 33  1  0  0  0
 33 63  1  0  0  0
 33 64  1  0  0  0
M  CHG  1  24  -1
M  END
> <s_m_entry_id>
40

> <s_m_entry_name>
entry

> <i_lp_mmshare_version>
47013

> <i_f3d_flags>
0

> <s_epik_input>
W2NIXTFbY0hdW2NIXVtjSF1bY0hdYzFbQ0gyXVtDSDJdW0NAQEhdKEMoPU8pT1tDSDJdW0NIM10pW05IXVtDQEBIXShbQ0gzXSlDKD1PKU4oW0NIMl1DKD1PKVtPSF0pW0NIXShbQ0gyXTIpW0NIMl1jKGMyMylbY0hdW2NIXVtjSF1bY0hdMw==

> <s_epik_cmdline>
J2VwaWtfcHl0aG9uJywgJy1waCcsICc3LjQnLCAnLXRuJywgJzgnLCAnLW1hJywgJzIwMCcsICctaW1hZScsICc8aW5maWxlLm1hZT4nLCAnLW9tYWUnLCAnPG91dGZpbGUubWFlPic=

> <r_epik_Ionization_Penalty>
  0.0838

> <r_epik_Ionization_Penalty_Charging>
  0.0001

> <r_epik_Ionization_Penalty_Neutral>
  0.0837

> <r_epik_State_Penalty>
  0.0743

> <r_epik_Charging_Adjusted_Penalty>
0.0744182692737191

> <i_epik_Tot_Q>
-1

> <i_epik_Tot_abs_Q>
1

> <s_lp_Force_Field>
OPLS3e

> <r_lp_Energy>
42.20596

> <b_lp_Chiralities_Consistent>
1

> <s_lp_Variant>
CE1_5362116-1

> <s_m_job_name>
ligprep_107

> <s_m_Source_Path>
/home/andre/Documents/projects/Esterase/data/FINAL_STUFF/Compounds/MAE_external

> <s_m_Source_File>
40.mae

> <i_m_Source_File_Index>
1

> <s_epik_Chemistry_Notes>
This compound has an ester and may undergo hydrolysis at high or low pH.

$$$$
