41
                    3D
 Schrodinger Suite 2021-1.
 55 56  0  0  1  0            999 V2000
   -0.0860   -1.2700   -3.6741 C   0  0  0  0  0  0
   -0.5691   -1.5408   -2.2460 C   0  0  0  0  0  0
   -0.2189   -0.4432   -1.4142 O   0  0  0  0  0  0
   -0.5629   -0.4315   -0.1032 C   0  0  0  0  0  0
   -1.1830   -1.3245    0.4783 O   0  0  0  0  0  0
   -0.0918    0.8240    0.6172 C   0  0  2  0  0  0
   -0.7600    2.0959    0.0356 C   0  0  0  0  0  0
   -2.2854    2.1840    0.2567 C   0  0  0  0  0  0
   -2.8759    3.4953   -0.2403 C   0  0  0  0  0  0
   -3.2544    3.6257   -1.5794 C   0  0  0  0  0  0
   -3.7899    4.8273   -2.0362 C   0  0  0  0  0  0
   -3.9450    5.8936   -1.1526 C   0  0  0  0  0  0
   -3.5687    5.7700    0.1834 C   0  0  0  0  0  0
   -3.0325    4.5689    0.6406 C   0  0  0  0  0  0
    1.3910    0.9421    0.5781 N   0  0  2  0  0  0
    2.1963   -0.0724    1.2762 C   0  0  1  0  0  0
    3.6729    0.2242    1.0263 C   0  0  0  0  0  0
    1.9184   -0.0486    2.8136 C   0  0  0  0  0  0
    1.7214    1.0531    3.3405 O   0  0  0  0  0  0
    1.9060   -1.2030    3.5547 N   0  0  0  0  0  0
    1.4575   -1.1671    4.9607 C   0  0  1  0  0  0
    0.5856   -2.3984    4.9574 C   0  0  0  0  0  0
    1.2953   -3.2223    4.0071 N   0  0  0  0  0  0
    2.0132   -2.4967    3.1127 C   0  0  0  0  0  0
    2.6205   -2.9318    2.1308 O   0  0  0  0  0  0
    0.7903   -4.5516    3.6801 C   0  0  0  0  0  0
    2.6683   -1.1013    5.9330 C   0  0  0  0  0  0
    2.6331   -1.8334    6.9470 O   0  0  0  0  0  0
    3.5930   -0.3007    5.6668 O   0  5  0  0  0  0
   -0.3429   -2.0992   -4.3334 H   0  0  0  0  0  0
    0.9964   -1.1426   -3.7063 H   0  0  0  0  0  0
   -0.5434   -0.3676   -4.0810 H   0  0  0  0  0  0
   -1.6509   -1.6842   -2.2409 H   0  0  0  0  0  0
   -0.1135   -2.4561   -1.8647 H   0  0  0  0  0  0
   -0.4166    0.7614    1.6565 H   0  0  0  0  0  0
   -0.3087    2.9732    0.5033 H   0  0  0  0  0  0
   -0.5319    2.2122   -1.0261 H   0  0  0  0  0  0
   -2.7931    1.3591   -0.2460 H   0  0  0  0  0  0
   -2.5197    2.0563    1.3151 H   0  0  0  0  0  0
   -3.1317    2.7999   -2.2654 H   0  0  0  0  0  0
   -4.0829    4.9323   -3.0705 H   0  0  0  0  0  0
   -4.3602    6.8256   -1.5073 H   0  0  0  0  0  0
   -3.6916    6.6021    0.8611 H   0  0  0  0  0  0
   -2.7385    4.4749    1.6761 H   0  0  0  0  0  0
    1.7089    1.8679    0.8274 H   0  0  0  0  0  0
    1.9308   -1.0274    0.8299 H   0  0  0  0  0  0
    4.2966   -0.5341    1.5029 H   0  0  0  0  0  0
    3.9527    1.2044    1.4177 H   0  0  0  0  0  0
    3.8815    0.2047   -0.0443 H   0  0  0  0  0  0
    0.8257   -0.3035    5.1739 H   0  0  0  0  0  0
    0.5021   -2.8708    5.9369 H   0  0  0  0  0  0
   -0.4177   -2.1802    4.5874 H   0  0  0  0  0  0
    1.4506   -5.0828    2.9928 H   0  0  0  0  0  0
   -0.1975   -4.4813    3.2231 H   0  0  0  0  0  0
    0.7040   -5.1500    4.5873 H   0  0  0  0  0  0
  1  2  1  0  0  0
  1 30  1  0  0  0
  1 31  1  0  0  0
  1 32  1  0  0  0
  2  3  1  0  0  0
  2 33  1  0  0  0
  2 34  1  0  0  0
  3  4  1  0  0  0
  4  5  2  0  0  0
  4  6  1  0  0  0
  6  7  1  0  0  0
  6 15  1  0  0  0
  6 35  1  0  0  0
  7  8  1  0  0  0
  7 36  1  0  0  0
  7 37  1  0  0  0
  8  9  1  0  0  0
  8 38  1  0  0  0
  8 39  1  0  0  0
  9 14  1  0  0  0
  9 10  2  0  0  0
 10 11  1  0  0  0
 10 40  1  0  0  0
 11 12  2  0  0  0
 11 41  1  0  0  0
 12 13  1  0  0  0
 12 42  1  0  0  0
 13 14  2  0  0  0
 13 43  1  0  0  0
 14 44  1  0  0  0
 15 16  1  0  0  0
 15 45  1  0  0  0
 16 17  1  0  0  0
 16 18  1  0  0  0
 16 46  1  0  0  0
 17 47  1  0  0  0
 17 48  1  0  0  0
 17 49  1  0  0  0
 18 19  2  0  0  0
 18 20  1  0  0  0
 20 24  1  0  0  0
 20 21  1  0  0  0
 21 22  1  0  0  0
 21 27  1  0  0  0
 21 50  1  0  0  0
 22 23  1  0  0  0
 22 51  1  0  0  0
 22 52  1  0  0  0
 23 24  1  0  0  0
 23 26  1  0  0  0
 24 25  2  0  0  0
 26 53  1  0  0  0
 26 54  1  0  0  0
 26 55  1  0  0  0
 27 28  2  0  0  0
 27 29  1  0  0  0
M  CHG  1  29  -1
M  END
> <s_m_entry_id>
41

> <s_m_entry_name>
entry

> <i_lp_mmshare_version>
47013

> <i_f3d_flags>
0

> <s_epik_input>
W2NIXTFbY0hdW2NIXVtjSF1bY0hdYzFbQ0gyXVtDSDJdW0NAQEhdKEMoPU8pT1tDSDJdW0NIM10pW05IXVtDQEBIXShbQ0gzXSlDKD1PKU4yW0NASF0oQyg9TylbT0hdKVtDSDJdTihDMj1PKVtDSDNd

> <s_epik_cmdline>
J2VwaWtfcHl0aG9uJywgJy1waCcsICc3LjQnLCAnLXRuJywgJzgnLCAnLW1hJywgJzIwMCcsICctaW1hZScsICc8aW5maWxlLm1hZT4nLCAnLW9tYWUnLCAnPG91dGZpbGUubWFlPic=

> <r_epik_Ionization_Penalty>
  0.0277

> <r_epik_Ionization_Penalty_Charging>
  0.0001

> <r_epik_Ionization_Penalty_Neutral>
  0.0276

> <r_epik_State_Penalty>
  0.0226

> <r_epik_Charging_Adjusted_Penalty>
0.0226911103414533

> <i_epik_Tot_Q>
-1

> <i_epik_Tot_abs_Q>
1

> <s_lp_Force_Field>
OPLS3e

> <r_lp_Energy>
32.611115

> <b_lp_Chiralities_Consistent>
1

> <s_lp_Variant>
CE1_5464343-1

> <s_m_job_name>
ligprep_108

> <s_m_Source_Path>
/home/andre/Documents/projects/Esterase/data/FINAL_STUFF/Compounds/MAE_external

> <s_m_Source_File>
41.mae

> <i_m_Source_File_Index>
1

> <r_lp_tautomer_probability>
0.99990000499975

> <s_epik_Chemistry_Notes>
This compound has an ester and may undergo hydrolysis at high or low pH.

$$$$
