43
                    3D
 Schrodinger Suite 2021-1.
 38 38  0  0  1  0            999 V2000
   -1.8216   -0.1914   -2.1400 C   0  0  0  0  0  0
   -0.3347    0.1202   -1.9043 C   0  0  0  0  0  0
    0.0001    0.0995   -0.3914 N   0  3  0  0  0  0
   -0.4918    1.3732    0.3407 C   0  0  0  0  0  0
   -0.6675    1.1034    1.8447 C   0  0  0  0  0  0
    1.5032   -0.1842   -0.1450 C   0  0  0  0  0  0
    1.7940   -1.6887   -0.2948 C   0  0  0  0  0  0
    1.5574   -2.3414    0.9474 O   0  0  0  0  0  0
    1.7205   -3.6827    1.0801 C   0  0  0  0  0  0
    2.0819   -4.4176    0.1566 O   0  0  0  0  0  0
    1.4236   -4.1801    2.4649 C   0  0  0  0  0  0
    1.5875   -5.5432    2.7512 C   0  0  0  0  0  0
    1.3207   -6.0363    4.0257 C   0  0  0  0  0  0
    0.8856   -5.1708    5.0268 C   0  0  0  0  0  0
    0.7160   -3.8142    4.7589 C   0  0  0  0  0  0
    0.9836   -3.3201    3.4848 C   0  0  0  0  0  0
    0.6185   -5.6648    6.3030 N   0  0  0  0  0  0
   -2.0308   -0.2603   -3.2079 H   0  0  0  0  0  0
   -2.4804    0.5764   -1.7360 H   0  0  0  0  0  0
   -2.1024   -1.1448   -1.6910 H   0  0  0  0  0  0
    0.2826   -0.6455   -2.3747 H   0  0  0  0  0  0
   -0.0274    1.0973   -2.2815 H   0  0  0  0  0  0
    0.2276    2.1630    0.1179 H   0  0  0  0  0  0
   -1.4521    1.6398   -0.0985 H   0  0  0  0  0  0
   -1.1036    1.9723    2.3382 H   0  0  0  0  0  0
    0.2758    0.8928    2.3475 H   0  0  0  0  0  0
   -1.3359    0.2594    2.0202 H   0  0  0  0  0  0
    2.0747    0.4446   -0.8296 H   0  0  0  0  0  0
    1.7198    0.1441    0.8712 H   0  0  0  0  0  0
    1.1971   -2.1439   -1.0862 H   0  0  0  0  0  0
    2.8438   -1.8261   -0.5591 H   0  0  0  0  0  0
    1.9239   -6.2359    1.9923 H   0  0  0  0  0  0
    1.4543   -7.0893    4.2281 H   0  0  0  0  0  0
    0.3781   -3.1391    5.5322 H   0  0  0  0  0  0
    0.8424   -2.2631    3.3097 H   0  0  0  0  0  0
    0.3052   -5.0325    7.0252 H   0  0  0  0  0  0
    0.7392   -6.6499    6.4899 H   0  0  0  0  0  0
   -0.5081   -0.6773    0.0083 H   0  0  0  0  0  0
  1  2  1  0  0  0
  1 18  1  0  0  0
  1 19  1  0  0  0
  1 20  1  0  0  0
  2  3  1  0  0  0
  2 21  1  0  0  0
  2 22  1  0  0  0
  3  4  1  0  0  0
  3  6  1  0  0  0
  3 38  1  0  0  0
  4  5  1  0  0  0
  4 23  1  0  0  0
  4 24  1  0  0  0
  5 25  1  0  0  0
  5 26  1  0  0  0
  5 27  1  0  0  0
  6  7  1  0  0  0
  6 28  1  0  0  0
  6 29  1  0  0  0
  7  8  1  0  0  0
  7 30  1  0  0  0
  7 31  1  0  0  0
  8  9  1  0  0  0
  9 10  2  0  0  0
  9 11  1  0  0  0
 11 16  2  0  0  0
 11 12  1  0  0  0
 12 13  2  0  0  0
 12 32  1  0  0  0
 13 14  1  0  0  0
 13 33  1  0  0  0
 14 15  2  0  0  0
 14 17  1  0  0  0
 15 16  1  0  0  0
 15 34  1  0  0  0
 16 35  1  0  0  0
 17 36  1  0  0  0
 17 37  1  0  0  0
M  CHG  1   3   1
M  END
> <s_m_entry_id>
43

> <s_m_entry_name>
entry

> <i_lp_mmshare_version>
47013

> <i_f3d_flags>
0

> <s_epik_input>
W0NIM11bQ0gyXU4oW0NIMl1bQ0gzXSlbQ0gyXVtDSDJdT0MoPU8pYzFbY0hdW2NIXWMoW05IMl0pW2NIXVtjSF0x

> <s_epik_cmdline>
J2VwaWtfcHl0aG9uJywgJy1waCcsICc3LjQnLCAnLXRuJywgJzgnLCAnLW1hJywgJzIwMCcsICctaW1hZScsICc8aW5maWxlLm1hZT4nLCAnLW9tYWUnLCAnPG91dGZpbGUubWFlPic=

> <r_epik_Ionization_Penalty>
  0.0630

> <r_epik_Ionization_Penalty_Charging>
  0.0630

> <r_epik_Ionization_Penalty_Neutral>
  0.0000

> <r_epik_State_Penalty>
  0.0548

> <r_epik_Charging_Adjusted_Penalty>
0.117747168595239

> <i_epik_Tot_Q>
1

> <i_epik_Tot_abs_Q>
1

> <s_lp_Force_Field>
OPLS3e

> <r_lp_Energy>
16.02841

> <b_lp_Chiralities_Consistent>
1

> <s_lp_Variant>
CE2_4914-1

> <s_m_job_name>
ligprep_110

> <s_m_Source_Path>
/home/andre/Documents/projects/Esterase/data/FINAL_STUFF/Compounds/MAE_external

> <s_m_Source_File>
43.mae

> <i_m_Source_File_Index>
1

> <s_epik_Chemistry_Notes>
This compound has an ester and may undergo hydrolysis at high or low pH.

$$$$
