45
                    3D
 Schrodinger Suite 2021-1.
 53 55  0  0  1  0            999 V2000
   -2.6786   -4.4986   -1.5118 C   0  0  0  0  0  0
   -2.7330   -3.3991   -0.6461 C   0  0  0  0  0  0
   -3.1363   -3.5865    0.6831 C   0  0  0  0  0  0
   -3.4530   -4.8607    1.1461 C   0  0  0  0  0  0
   -3.3786   -5.9483    0.2799 C   0  0  0  0  0  0
   -2.9956   -5.7724   -1.0474 C   0  0  0  0  0  0
   -2.4136   -2.0181   -1.1654 C   0  0  0  0  0  0
   -1.7391   -1.0692   -0.3222 N   0  0  0  0  0  0
   -2.8001   -1.6817   -2.2863 O   0  0  0  0  0  0
   -1.9741    0.3044   -0.2671 C   0  0  0  0  0  0
   -1.0845    0.8604    0.6911 C   0  0  0  0  0  0
   -0.2724   -0.2013    1.1916 C   0  0  0  0  0  0
   -0.6620   -1.3548    0.5253 C   0  0  0  0  0  0
   -2.9008    1.1106   -0.9484 C   0  0  0  0  0  0
   -2.9142    2.4736   -0.6570 C   0  0  0  0  0  0
   -2.0489    3.0465    0.2837 C   0  0  0  0  0  0
   -1.1373    2.2376    0.9583 C   0  0  0  0  0  0
   -2.0262    4.3899    0.6059 O   0  0  0  0  0  0
   -2.9237    5.2794   -0.0494 C   0  0  0  0  0  0
   -0.0089   -2.7272    0.6348 C   0  0  0  0  0  0
    0.8200   -0.0491    2.2365 C   0  0  0  0  0  0
    2.1383    0.4849    1.6651 C   0  0  0  0  0  0
    2.7812    1.2832    2.5403 O   0  0  0  0  0  0
    2.5259    0.1937    0.5307 O   0  0  0  0  0  0
    4.0118    1.9048    2.1891 C   0  0  0  0  0  0
    4.4249    2.9152    3.2711 C   0  0  0  0  0  0
    3.4462    4.0964    3.4138 C   0  0  0  0  0  0
    3.8910    5.1189    4.4680 C   0  0  0  0  0  0
   -2.3862   -4.3748   -2.5451 H   0  0  0  0  0  0
   -3.2072   -2.7500    1.3641 H   0  0  0  0  0  0
   -3.7584   -5.0044    2.1721 H   0  0  0  0  0  0
   -3.7746   -7.5311    0.8552 Cl  0  0  0  0  0  0
   -2.9467   -6.6201   -1.7148 H   0  0  0  0  0  0
   -3.5915    0.7061   -1.6733 H   0  0  0  0  0  0
   -3.6286    3.0850   -1.1870 H   0  0  0  0  0  0
   -0.4661    2.6771    1.6818 H   0  0  0  0  0  0
   -2.7643    6.2906    0.3246 H   0  0  0  0  0  0
   -3.9639    5.0152    0.1470 H   0  0  0  0  0  0
   -2.7550    5.2963   -1.1273 H   0  0  0  0  0  0
    1.0208   -2.6520    0.9843 H   0  0  0  0  0  0
    0.0442   -3.2475   -0.3216 H   0  0  0  0  0  0
   -0.5242   -3.3760    1.3414 H   0  0  0  0  0  0
    0.4867    0.6003    3.0470 H   0  0  0  0  0  0
    1.0395   -1.0099    2.7021 H   0  0  0  0  0  0
    4.7835    1.1410    2.0807 H   0  0  0  0  0  0
    3.9217    2.4126    1.2269 H   0  0  0  0  0  0
    4.5299    2.4006    4.2274 H   0  0  0  0  0  0
    5.4157    3.2991    3.0253 H   0  0  0  0  0  0
    3.3378    4.5992    2.4520 H   0  0  0  0  0  0
    2.4545    3.7257    3.6764 H   0  0  0  0  0  0
    3.1794    5.9421    4.5353 H   0  0  0  0  0  0
    4.8649    5.5435    4.2224 H   0  0  0  0  0  0
    3.9631    4.6630    5.4559 H   0  0  0  0  0  0
  1  2  2  0  0  0
  1  6  1  0  0  0
  1 29  1  0  0  0
  2  3  1  0  0  0
  2  7  1  0  0  0
  3  4  2  0  0  0
  3 30  1  0  0  0
  4  5  1  0  0  0
  4 31  1  0  0  0
  5  6  2  0  0  0
  5 32  1  0  0  0
  6 33  1  0  0  0
  7  8  1  0  0  0
  7  9  2  0  0  0
  8 13  1  0  0  0
  8 10  1  0  0  0
 10 11  2  0  0  0
 10 14  1  0  0  0
 11 12  1  0  0  0
 11 17  1  0  0  0
 12 13  2  0  0  0
 12 21  1  0  0  0
 13 20  1  0  0  0
 14 15  2  0  0  0
 14 34  1  0  0  0
 15 16  1  0  0  0
 15 35  1  0  0  0
 16 17  2  0  0  0
 16 18  1  0  0  0
 17 36  1  0  0  0
 18 19  1  0  0  0
 19 37  1  0  0  0
 19 38  1  0  0  0
 19 39  1  0  0  0
 20 40  1  0  0  0
 20 41  1  0  0  0
 20 42  1  0  0  0
 21 22  1  0  0  0
 21 43  1  0  0  0
 21 44  1  0  0  0
 22 23  1  0  0  0
 22 24  2  0  0  0
 23 25  1  0  0  0
 25 26  1  0  0  0
 25 45  1  0  0  0
 25 46  1  0  0  0
 26 27  1  0  0  0
 26 47  1  0  0  0
 26 48  1  0  0  0
 27 28  1  0  0  0
 27 49  1  0  0  0
 27 50  1  0  0  0
 28 51  1  0  0  0
 28 52  1  0  0  0
 28 53  1  0  0  0
M  END
> <s_m_entry_id>
45

> <s_m_entry_name>
entry

> <i_lp_mmshare_version>
47013

> <i_f3d_flags>
0

> <s_epik_input>
W2NIXTFbY0hdW2NIXVtjSF1bY0hdYzFDKD1PKW4yYyhbQ0gzXSljKGMoYzIzKVtjSF1jKFtjSF1bY0hdMylPW0NIM10pW0NIMl1DKD1PKU9bQ0gyXVtDSDJdW0NIMl1bQ0gzXQ==

> <s_epik_cmdline>
J2VwaWtfcHl0aG9uJywgJy1waCcsICc3LjQnLCAnLXRuJywgJzgnLCAnLW1hJywgJzIwMCcsICctaW1hZScsICc8aW5maWxlLm1hZT4nLCAnLW9tYWUnLCAnPG91dGZpbGUubWFlPic=

> <r_epik_Ionization_Penalty>
  0.0000

> <r_epik_Ionization_Penalty_Charging>
  0.0000

> <r_epik_Ionization_Penalty_Neutral>
  0.0000

> <r_epik_State_Penalty>
  0.0000

> <r_epik_Charging_Adjusted_Penalty>
0

> <i_epik_Tot_Q>
0

> <i_epik_Tot_abs_Q>
0

> <s_lp_Force_Field>
OPLS3e

> <r_lp_Energy>
47.592537

> <b_lp_Chiralities_Consistent>
1

> <s_lp_Variant>
CE1_10476854-1

> <s_m_job_name>
ligprep_119

> <s_m_Source_Path>
/home/andre/Documents/projects/Esterase/data/FINAL_STUFF/Compounds/MAE_external

> <s_m_Source_File>
45.mae

> <i_m_Source_File_Index>
1

> <r_lp_tautomer_probability>
1

> <s_epik_Chemistry_Notes>
This compound has an ester and may undergo hydrolysis at high or low pH.

$$$$
