47
                    3D
 Schrodinger Suite 2021-1.
 53 55  0  0  1  0            999 V2000
   -3.1632   -4.3840   -0.8684 C   0  0  0  0  0  0
   -2.6801   -3.2667   -0.1756 C   0  0  0  0  0  0
   -2.1218   -3.4338    1.0995 C   0  0  0  0  0  0
   -2.0228   -4.7045    1.6600 C   0  0  0  0  0  0
   -2.4921   -5.8091    0.9537 C   0  0  0  0  0  0
   -3.0644   -5.6540   -0.3062 C   0  0  0  0  0  0
   -2.8167   -1.8909   -0.7824 C   0  0  0  0  0  0
   -1.7986   -0.9018   -0.5593 N   0  0  0  0  0  0
   -3.8387   -1.5941   -1.4043 O   0  0  0  0  0  0
   -2.0010    0.4608   -0.3459 C   0  0  0  0  0  0
   -0.7282    1.0689   -0.1715 C   0  0  0  0  0  0
    0.2602    0.0484   -0.3238 C   0  0  0  0  0  0
   -0.4185   -1.1304   -0.6027 C   0  0  0  0  0  0
   -3.1829    1.2144   -0.2603 C   0  0  0  0  0  0
   -3.0638    2.5765    0.0064 C   0  0  0  0  0  0
   -1.8335    3.2002    0.1921 C   0  0  0  0  0  0
   -0.6557    2.4457    0.0982 C   0  0  0  0  0  0
   -1.8690    4.5541    0.4650 O   0  0  0  0  0  0
   -0.6506    5.2460    0.7140 C   0  0  0  0  0  0
    0.2056   -2.4791   -0.9420 C   0  0  0  0  0  0
    1.7619    0.2557   -0.2274 C   0  0  0  0  0  0
    2.2733    0.1087    1.2062 C   0  0  0  0  0  0
    1.8540    1.1112    2.0045 O   0  0  0  0  0  0
    2.9848   -0.8403    1.5395 O   0  0  0  0  0  0
    2.2017    1.1427    3.3836 C   0  0  0  0  0  0
    1.5867    2.3744    4.0800 C   0  0  0  0  0  0
    0.0465    2.3488    4.0511 C   0  0  0  0  0  0
    2.1409    3.6945    3.5125 C   0  0  0  0  0  0
   -3.6121   -4.2768   -1.8459 H   0  0  0  0  0  0
   -1.7613   -2.5845    1.6629 H   0  0  0  0  0  0
   -1.5869   -4.8325    2.6399 H   0  0  0  0  0  0
   -2.3709   -7.3876    1.6512 Cl  0  0  0  0  0  0
   -3.4326   -6.5151   -0.8445 H   0  0  0  0  0  0
   -4.1597    0.7704   -0.3824 H   0  0  0  0  0  0
   -3.9651    3.1678    0.0795 H   0  0  0  0  0  0
    0.3111    2.9046    0.2364 H   0  0  0  0  0  0
   -0.8673    6.2941    0.9201 H   0  0  0  0  0  0
    0.0157    5.2096   -0.1492 H   0  0  0  0  0  0
   -0.1348    4.8395    1.5846 H   0  0  0  0  0  0
    1.2145   -2.3689   -1.3380 H   0  0  0  0  0  0
   -0.3502   -3.0237   -1.7052 H   0  0  0  0  0  0
    0.2932   -3.1235   -0.0685 H   0  0  0  0  0  0
    2.2970   -0.4579   -0.8536 H   0  0  0  0  0  0
    2.0422    1.2423   -0.5972 H   0  0  0  0  0  0
    1.8532    0.2317    3.8733 H   0  0  0  0  0  0
    3.2877    1.1614    3.4914 H   0  0  0  0  0  0
    1.8872    2.3258    5.1276 H   0  0  0  0  0  0
   -0.3390    2.4212    3.0335 H   0  0  0  0  0  0
   -0.3728    3.1787    4.6210 H   0  0  0  0  0  0
   -0.3407    1.4266    4.4861 H   0  0  0  0  0  0
    1.8952    3.8124    2.4566 H   0  0  0  0  0  0
    3.2268    3.7371    3.6046 H   0  0  0  0  0  0
    1.7350    4.5557    4.0444 H   0  0  0  0  0  0
  1  2  2  0  0  0
  1  6  1  0  0  0
  1 29  1  0  0  0
  2  3  1  0  0  0
  2  7  1  0  0  0
  3  4  2  0  0  0
  3 30  1  0  0  0
  4  5  1  0  0  0
  4 31  1  0  0  0
  5  6  2  0  0  0
  5 32  1  0  0  0
  6 33  1  0  0  0
  7  8  1  0  0  0
  7  9  2  0  0  0
  8 13  1  0  0  0
  8 10  1  0  0  0
 10 11  2  0  0  0
 10 14  1  0  0  0
 11 12  1  0  0  0
 11 17  1  0  0  0
 12 13  2  0  0  0
 12 21  1  0  0  0
 13 20  1  0  0  0
 14 15  2  0  0  0
 14 34  1  0  0  0
 15 16  1  0  0  0
 15 35  1  0  0  0
 16 17  2  0  0  0
 16 18  1  0  0  0
 17 36  1  0  0  0
 18 19  1  0  0  0
 19 37  1  0  0  0
 19 38  1  0  0  0
 19 39  1  0  0  0
 20 40  1  0  0  0
 20 41  1  0  0  0
 20 42  1  0  0  0
 21 22  1  0  0  0
 21 43  1  0  0  0
 21 44  1  0  0  0
 22 23  1  0  0  0
 22 24  2  0  0  0
 23 25  1  0  0  0
 25 26  1  0  0  0
 25 45  1  0  0  0
 25 46  1  0  0  0
 26 27  1  0  0  0
 26 28  1  0  0  0
 26 47  1  0  0  0
 27 48  1  0  0  0
 27 49  1  0  0  0
 27 50  1  0  0  0
 28 51  1  0  0  0
 28 52  1  0  0  0
 28 53  1  0  0  0
M  END
> <s_m_entry_id>
47

> <s_m_entry_name>
entry

> <i_lp_mmshare_version>
47013

> <i_f3d_flags>
0

> <s_epik_input>
W2NIXTFbY0hdW2NIXVtjSF1bY0hdYzFDKD1PKW4yYyhbQ0gzXSljKGMoYzIzKVtjSF1jKFtjSF1bY0hdMylPW0NIM10pW0NIMl1DKD1PKU9bQ0gyXVtDSF0oW0NIM10pW0NIM10=

> <s_epik_cmdline>
J2VwaWtfcHl0aG9uJywgJy1waCcsICc3LjQnLCAnLXRuJywgJzgnLCAnLW1hJywgJzIwMCcsICctaW1hZScsICc8aW5maWxlLm1hZT4nLCAnLW9tYWUnLCAnPG91dGZpbGUubWFlPic=

> <r_epik_Ionization_Penalty>
  0.0000

> <r_epik_Ionization_Penalty_Charging>
  0.0000

> <r_epik_Ionization_Penalty_Neutral>
  0.0000

> <r_epik_State_Penalty>
  0.0000

> <r_epik_Charging_Adjusted_Penalty>
0

> <i_epik_Tot_Q>
0

> <i_epik_Tot_abs_Q>
0

> <s_lp_Force_Field>
OPLS3e

> <r_lp_Energy>
44.474153

> <b_lp_Chiralities_Consistent>
1

> <s_lp_Variant>
CE1_91716405-1

> <s_m_job_name>
ligprep_119

> <s_m_Source_Path>
/home/andre/Documents/projects/Esterase/data/FINAL_STUFF/Compounds/MAE_external

> <s_m_Source_File>
47.mae

> <i_m_Source_File_Index>
1

> <r_lp_tautomer_probability>
1

> <s_epik_Chemistry_Notes>
This compound has an ester and may undergo hydrolysis at high or low pH.

$$$$
