48
                    3D
 Schrodinger Suite 2021-1.
 56 58  0  0  1  0            999 V2000
   -3.1579   -4.3536   -0.7830 C   0  0  0  0  0  0
   -2.6643   -3.2269   -0.1132 C   0  0  0  0  0  0
   -2.0788   -3.3776    1.1518 C   0  0  0  0  0  0
   -1.9622   -4.6416    1.7238 C   0  0  0  0  0  0
   -2.4410   -5.7558    1.0397 C   0  0  0  0  0  0
   -3.0412   -5.6171   -0.2093 C   0  0  0  0  0  0
   -2.8149   -1.8583   -0.7333 C   0  0  0  0  0  0
   -1.7949   -0.8661   -0.5354 N   0  0  0  0  0  0
   -3.8472   -1.5692   -1.3415 O   0  0  0  0  0  0
   -1.9945    0.4971   -0.3250 C   0  0  0  0  0  0
   -0.7195    1.1058   -0.1735 C   0  0  0  0  0  0
    0.2660    0.0826   -0.3240 C   0  0  0  0  0  0
   -0.4157   -1.0945   -0.6004 C   0  0  0  0  0  0
   -3.1747    1.2508   -0.2223 C   0  0  0  0  0  0
   -3.0509    2.6149    0.0324 C   0  0  0  0  0  0
   -1.8175    3.2407    0.1887 C   0  0  0  0  0  0
   -0.6418    2.4843    0.0846 C   0  0  0  0  0  0
   -1.8473    4.5983    0.4442 O   0  0  0  0  0  0
   -0.6221    5.3014    0.6212 C   0  0  0  0  0  0
    0.2033   -2.4426   -0.9503 C   0  0  0  0  0  0
    1.7701    0.2866   -0.2157 C   0  0  0  0  0  0
    2.2993    0.1349    1.2161 C   0  0  0  0  0  0
    1.5052    0.7239    2.1354 O   0  0  0  0  0  0
    3.3679   -0.4348    1.4427 O   0  0  0  0  0  0
    1.8054    0.6644    3.5245 C   0  0  0  0  0  0
    0.6641    1.2882    4.3675 C   0  0  0  0  0  0
    0.4854    2.7814    4.0075 C   0  0  0  0  0  0
    1.0354    1.1718    5.8618 C   0  0  0  0  0  0
   -0.6624    0.5322    4.1160 C   0  0  0  0  0  0
   -3.6279   -4.2591   -1.7519 H   0  0  0  0  0  0
   -1.7093   -2.5207    1.6979 H   0  0  0  0  0  0
   -1.5045   -4.7569    2.6952 H   0  0  0  0  0  0
   -2.2963   -7.3260    1.7513 Cl  0  0  0  0  0  0
   -3.4161   -6.4856   -0.7305 H   0  0  0  0  0  0
   -4.1532    0.8056   -0.3240 H   0  0  0  0  0  0
   -3.9512    3.2066    0.1162 H   0  0  0  0  0  0
    0.3275    2.9430    0.2052 H   0  0  0  0  0  0
   -0.8355    6.3534    0.8105 H   0  0  0  0  0  0
    0.0036    5.2477   -0.2710 H   0  0  0  0  0  0
   -0.0614    4.9203    1.4758 H   0  0  0  0  0  0
    1.2037   -2.3299   -1.3668 H   0  0  0  0  0  0
   -0.3671   -2.9879   -1.7025 H   0  0  0  0  0  0
    0.3087   -3.0868   -0.0785 H   0  0  0  0  0  0
    2.3045   -0.4225   -0.8478 H   0  0  0  0  0  0
    2.0542    1.2738   -0.5799 H   0  0  0  0  0  0
    1.9546   -0.3761    3.8196 H   0  0  0  0  0  0
    2.7439    1.1883    3.7136 H   0  0  0  0  0  0
   -0.2835    3.2529    4.6211 H   0  0  0  0  0  0
    0.1886    2.9114    2.9663 H   0  0  0  0  0  0
    1.4094    3.3422    4.1538 H   0  0  0  0  0  0
    1.9665    1.6945    6.0852 H   0  0  0  0  0  0
    1.1670    0.1314    6.1624 H   0  0  0  0  0  0
    0.2624    1.5987    6.5027 H   0  0  0  0  0  0
   -1.4682    0.9173    4.7423 H   0  0  0  0  0  0
   -0.5628   -0.5328    4.3306 H   0  0  0  0  0  0
   -0.9902    0.6242    3.0792 H   0  0  0  0  0  0
  1  2  2  0  0  0
  1  6  1  0  0  0
  1 30  1  0  0  0
  2  3  1  0  0  0
  2  7  1  0  0  0
  3  4  2  0  0  0
  3 31  1  0  0  0
  4  5  1  0  0  0
  4 32  1  0  0  0
  5  6  2  0  0  0
  5 33  1  0  0  0
  6 34  1  0  0  0
  7  8  1  0  0  0
  7  9  2  0  0  0
  8 13  1  0  0  0
  8 10  1  0  0  0
 10 11  2  0  0  0
 10 14  1  0  0  0
 11 12  1  0  0  0
 11 17  1  0  0  0
 12 13  2  0  0  0
 12 21  1  0  0  0
 13 20  1  0  0  0
 14 15  2  0  0  0
 14 35  1  0  0  0
 15 16  1  0  0  0
 15 36  1  0  0  0
 16 17  2  0  0  0
 16 18  1  0  0  0
 17 37  1  0  0  0
 18 19  1  0  0  0
 19 38  1  0  0  0
 19 39  1  0  0  0
 19 40  1  0  0  0
 20 41  1  0  0  0
 20 42  1  0  0  0
 20 43  1  0  0  0
 21 22  1  0  0  0
 21 44  1  0  0  0
 21 45  1  0  0  0
 22 23  1  0  0  0
 22 24  2  0  0  0
 23 25  1  0  0  0
 25 26  1  0  0  0
 25 46  1  0  0  0
 25 47  1  0  0  0
 26 27  1  0  0  0
 26 28  1  0  0  0
 26 29  1  0  0  0
 27 48  1  0  0  0
 27 49  1  0  0  0
 27 50  1  0  0  0
 28 51  1  0  0  0
 28 52  1  0  0  0
 28 53  1  0  0  0
 29 54  1  0  0  0
 29 55  1  0  0  0
 29 56  1  0  0  0
M  END
> <s_m_entry_id>
48

> <s_m_entry_name>
entry

> <i_lp_mmshare_version>
47013

> <i_f3d_flags>
0

> <s_epik_input>
W2NIXTFbY0hdW2NIXVtjSF1bY0hdYzFDKD1PKW4yYyhbQ0gzXSljKGMoYzIzKVtjSF1jKFtjSF1bY0hdMylPW0NIM10pW0NIMl1DKD1PKU9bQ0gyXUMoW0NIM10pKFtDSDNdKVtDSDNd

> <s_epik_cmdline>
J2VwaWtfcHl0aG9uJywgJy1waCcsICc3LjQnLCAnLXRuJywgJzgnLCAnLW1hJywgJzIwMCcsICctaW1hZScsICc8aW5maWxlLm1hZT4nLCAnLW9tYWUnLCAnPG91dGZpbGUubWFlPic=

> <r_epik_Ionization_Penalty>
  0.0000

> <r_epik_Ionization_Penalty_Charging>
  0.0000

> <r_epik_Ionization_Penalty_Neutral>
  0.0000

> <r_epik_State_Penalty>
  0.0000

> <r_epik_Charging_Adjusted_Penalty>
0

> <i_epik_Tot_Q>
0

> <i_epik_Tot_abs_Q>
0

> <s_lp_Force_Field>
OPLS3e

> <r_lp_Energy>
45.671381

> <b_lp_Chiralities_Consistent>
1

> <s_lp_Variant>
CE1_14500277-1

> <s_m_job_name>
ligprep_120

> <s_m_Source_Path>
/home/andre/Documents/projects/Esterase/data/FINAL_STUFF/Compounds/MAE_external

> <s_m_Source_File>
48.mae

> <i_m_Source_File_Index>
1

> <r_lp_tautomer_probability>
1

> <s_epik_Chemistry_Notes>
This compound has an ester and may undergo hydrolysis at high or low pH.

$$$$
