52
                    3D
 Schrodinger Suite 2021-1.
 77 79  0  0  1  0            999 V2000
   -0.4198    6.5481    1.2592 C   0  0  0  0  0  0
   -1.2089    5.4786    2.0291 C   0  0  0  0  0  0
   -0.3247    4.7523    3.0625 C   0  0  0  0  0  0
   -1.7387    4.5603    1.0733 O   0  0  0  0  0  0
   -2.7840    3.7496    1.3629 C   0  0  0  0  0  0
   -3.4113    3.7193    2.4227 O   0  0  0  0  0  0
   -3.1346    2.8108    0.2057 C   0  0  0  0  0  0
   -2.4898    1.4135    0.3270 C   0  0  0  0  0  0
   -0.9504    1.4049    0.2216 C   0  0  0  0  0  0
   -0.3551   -0.0133    0.2679 C   0  0  0  0  0  0
    1.1808   -0.0218    0.1671 C   0  0  0  0  0  0
    1.7768   -1.4428    0.2052 C   0  0  0  0  0  0
    3.3044   -1.4933    0.0043 C   0  0  0  0  0  0
    4.1171   -0.8722    1.1601 C   0  0  0  0  0  0
    5.6449   -1.0078    1.0035 C   0  0  0  0  0  0
    6.2363   -0.1855   -0.1588 C   0  0  0  0  0  0
    7.7685   -0.2816   -0.2432 C   0  0  0  0  0  0
    8.3124    0.5080   -1.3448 N   0  0  0  0  0  0
    9.6165    0.7677   -1.5243 C   0  0  0  0  0  0
   10.5109    0.3415   -0.7918 O   0  0  0  0  0  0
    9.8196    1.5311   -2.6131 N   0  0  0  0  0  0
   11.1022    1.8825   -3.2427 C   0  0  0  0  0  0
   11.9072    0.6238   -3.7117 C   0  0  0  0  0  0
   13.2250    1.0260   -4.4248 C   0  0  1  0  0  0
   12.8934    1.8822   -5.6729 C   0  0  0  0  0  0
   12.1299    3.1576   -5.2353 C   0  0  1  0  0  0
   10.8194    2.7483   -4.5124 C   0  0  0  0  0  0
   13.0124    3.9840   -4.2662 C   0  0  0  0  0  0
   13.3447    3.1301   -3.0167 C   0  0  2  0  0  0
   14.1057    1.8507   -3.4509 C   0  0  0  0  0  0
   12.0266    2.7284   -2.3031 C   0  0  0  0  0  0
   -0.0006    7.2921    1.9374 H   0  0  0  0  0  0
   -1.0613    7.0757    0.5527 H   0  0  0  0  0  0
    0.4050    6.1092    0.6961 H   0  0  0  0  0  0
   -2.0304    5.9774    2.5468 H   0  0  0  0  0  0
    0.1009    5.4566    3.7777 H   0  0  0  0  0  0
    0.5009    4.2272    2.5808 H   0  0  0  0  0  0
   -0.8960    4.0194    3.6325 H   0  0  0  0  0  0
   -4.2195    2.7097    0.1646 H   0  0  0  0  0  0
   -2.8345    3.2757   -0.7343 H   0  0  0  0  0  0
   -2.7927    0.9507    1.2681 H   0  0  0  0  0  0
   -2.9040    0.7793   -0.4578 H   0  0  0  0  0  0
   -0.6501    1.8943   -0.7064 H   0  0  0  0  0  0
   -0.5213    1.9969    1.0313 H   0  0  0  0  0  0
   -0.6590   -0.5033    1.1944 H   0  0  0  0  0  0
   -0.7753   -0.6077   -0.5451 H   0  0  0  0  0  0
    1.4847    0.4730   -0.7568 H   0  0  0  0  0  0
    1.5933    0.5729    0.9830 H   0  0  0  0  0  0
    1.5166   -1.9263    1.1481 H   0  0  0  0  0  0
    1.3077   -2.0428   -0.5763 H   0  0  0  0  0  0
    3.6027   -2.5359   -0.1142 H   0  0  0  0  0  0
    3.5538   -1.0033   -0.9372 H   0  0  0  0  0  0
    3.8644    0.1824    1.2740 H   0  0  0  0  0  0
    3.8216   -1.3519    2.0944 H   0  0  0  0  0  0
    6.1154   -0.6897    1.9354 H   0  0  0  0  0  0
    5.9069   -2.0602    0.8827 H   0  0  0  0  0  0
    5.8078   -0.5240   -1.1027 H   0  0  0  0  0  0
    5.9454    0.8600   -0.0432 H   0  0  0  0  0  0
    8.2030    0.0377    0.7067 H   0  0  0  0  0  0
    8.0655   -1.3260   -0.3559 H   0  0  0  0  0  0
    7.6491    0.8441   -2.0277 H   0  0  0  0  0  0
    9.0031    1.9012   -3.0772 H   0  0  0  0  0  0
   12.1440   -0.0193   -2.8630 H   0  0  0  0  0  0
   11.2967    0.0147   -4.3810 H   0  0  0  0  0  0
   13.7624    0.1278   -4.7311 H   0  0  0  0  0  0
   13.8091    2.1510   -6.2021 H   0  0  0  0  0  0
   12.2944    1.3057   -6.3795 H   0  0  0  0  0  0
   11.8913    3.7590   -6.1134 H   0  0  0  0  0  0
   10.1778    2.2013   -5.2061 H   0  0  0  0  0  0
   10.2599    3.6453   -4.2395 H   0  0  0  0  0  0
   13.9303    4.2996   -4.7647 H   0  0  0  0  0  0
   12.4975    4.9002   -3.9727 H   0  0  0  0  0  0
   13.9673    3.7102   -2.3342 H   0  0  0  0  0  0
   14.3677    1.2512   -2.5776 H   0  0  0  0  0  0
   15.0503    2.1161   -3.9286 H   0  0  0  0  0  0
   11.5020    3.6240   -1.9654 H   0  0  0  0  0  0
   12.2704    2.1717   -1.3974 H   0  0  0  0  0  0
  1  2  1  0  0  0
  1 32  1  0  0  0
  1 33  1  0  0  0
  1 34  1  0  0  0
  2  3  1  0  0  0
  2  4  1  0  0  0
  2 35  1  0  0  0
  3 36  1  0  0  0
  3 37  1  0  0  0
  3 38  1  0  0  0
  4  5  1  0  0  0
  5  6  2  0  0  0
  5  7  1  0  0  0
  7  8  1  0  0  0
  7 39  1  0  0  0
  7 40  1  0  0  0
  8  9  1  0  0  0
  8 41  1  0  0  0
  8 42  1  0  0  0
  9 10  1  0  0  0
  9 43  1  0  0  0
  9 44  1  0  0  0
 10 11  1  0  0  0
 10 45  1  0  0  0
 10 46  1  0  0  0
 11 12  1  0  0  0
 11 47  1  0  0  0
 11 48  1  0  0  0
 12 13  1  0  0  0
 12 49  1  0  0  0
 12 50  1  0  0  0
 13 14  1  0  0  0
 13 51  1  0  0  0
 13 52  1  0  0  0
 14 15  1  0  0  0
 14 53  1  0  0  0
 14 54  1  0  0  0
 15 16  1  0  0  0
 15 55  1  0  0  0
 15 56  1  0  0  0
 16 17  1  0  0  0
 16 57  1  0  0  0
 16 58  1  0  0  0
 17 18  1  0  0  0
 17 59  1  0  0  0
 17 60  1  0  0  0
 18 19  1  0  0  0
 18 61  1  0  0  0
 19 20  2  0  0  0
 19 21  1  0  0  0
 21 22  1  0  0  0
 21 62  1  0  0  0
 22 27  1  0  0  0
 22 31  1  0  0  0
 22 23  1  0  0  0
 23 24  1  0  0  0
 23 63  1  0  0  0
 23 64  1  0  0  0
 24 30  1  0  0  0
 24 25  1  0  0  0
 24 65  1  0  0  0
 25 26  1  0  0  0
 25 66  1  0  0  0
 25 67  1  0  0  0
 26 27  1  0  0  0
 26 28  1  0  0  0
 26 68  1  0  0  0
 27 69  1  0  0  0
 27 70  1  0  0  0
 28 29  1  0  0  0
 28 71  1  0  0  0
 28 72  1  0  0  0
 29 30  1  0  0  0
 29 31  1  0  0  0
 29 73  1  0  0  0
 30 74  1  0  0  0
 30 75  1  0  0  0
 31 76  1  0  0  0
 31 77  1  0  0  0
M  END
> <s_m_entry_id>
52

> <s_m_entry_name>
entry

> <i_lp_mmshare_version>
47013

> <i_f3d_flags>
0

> <s_epik_input>
W0NIM11bQ0hdKFtDSDNdKU9DKD1PKVtDSDJdW0NIMl1bQ0gyXVtDSDJdW0NIMl1bQ0gyXVtDSDJdW0NIMl1bQ0gyXVtDSDJdW0NIMl1bTkhdQyg9TylbTkhdQzEyW0NIMl1bQ0BIXTNbQ0gyXVtDQEBIXShbQ0gyXTEpW0NIMl1bQ0BIXShbQ0gyXTMpW0NIMl0y

> <s_epik_cmdline>
J2VwaWtfcHl0aG9uJywgJy1waCcsICc3LjQnLCAnLXRuJywgJzgnLCAnLW1hJywgJzIwMCcsICctaW1hZScsICc8aW5maWxlLm1hZT4nLCAnLW9tYWUnLCAnPG91dGZpbGUubWFlPic=

> <r_epik_Ionization_Penalty>
  0.0000

> <r_epik_Ionization_Penalty_Charging>
  0.0000

> <r_epik_Ionization_Penalty_Neutral>
  0.0000

> <r_epik_State_Penalty>
  0.0000

> <r_epik_Charging_Adjusted_Penalty>
0

> <i_epik_Tot_Q>
0

> <i_epik_Tot_abs_Q>
0

> <s_lp_Force_Field>
OPLS3e

> <r_lp_Energy>
29.675035

> <b_lp_Chiralities_Consistent>
1

> <s_lp_Variant>
11362548-1

> <s_m_job_name>
ligprep_5

> <s_m_Source_Path>
/home/andre/Documents/projects/Esterase/data/FINAL_STUFF/Compounds/MAE_external

> <s_m_Source_File>
52.mae

> <i_m_Source_File_Index>
1

> <r_lp_tautomer_probability>
1

> <s_epik_Chemistry_Notes>
This compound has an ester and may undergo hydrolysis at high or low pH.

$$$$
