53
                    3D
 Schrodinger Suite 2021-1.
 80 82  0  0  1  0            999 V2000
   -3.6468    7.8423   -2.0990 C   0  0  0  0  0  0
   -2.1317    7.8624   -1.8170 C   0  0  0  0  0  0
   -1.4606    9.0697   -2.4941 C   0  0  0  0  0  0
   -1.4398    6.5479   -2.2311 C   0  0  0  0  0  0
   -1.9802    5.4453   -1.5110 O   0  0  0  0  0  0
   -1.5342    4.1925   -1.7326 C   0  0  0  0  0  0
   -0.6578    3.8703   -2.5385 O   0  0  0  0  0  0
   -2.2551    3.1685   -0.8437 C   0  0  0  0  0  0
   -1.6452    1.7481   -0.8241 C   0  0  0  0  0  0
   -0.2782    1.6535   -0.1163 C   0  0  0  0  0  0
    0.2709    0.2165   -0.0621 C   0  0  0  0  0  0
    1.6305    0.1229    0.6574 C   0  0  0  0  0  0
    2.2493   -1.2890    0.6719 C   0  0  0  0  0  0
    1.4509   -2.3249    1.4874 C   0  0  0  0  0  0
    2.1613   -3.6868    1.5859 C   0  0  0  0  0  0
    1.3582   -4.7252    2.3891 C   0  0  0  0  0  0
    2.0806   -6.0785    2.5133 C   0  0  0  0  0  0
    1.2742   -7.1154    3.3203 C   0  0  0  0  0  0
    1.9251   -8.4204    3.4267 N   0  0  0  0  0  0
    2.9721   -8.6961    4.2210 C   0  0  0  0  0  0
    3.4786   -7.8861    4.9991 O   0  0  0  0  0  0
    3.4107   -9.9544    4.0367 N   0  0  0  0  0  0
    4.6042  -10.5890    4.6175 C   0  0  0  0  0  0
    5.9299   -9.8552    4.2223 C   0  0  0  0  0  0
    7.1737  -10.5806    4.7998 C   0  0  1  0  0  0
    7.0689  -10.6298    6.3460 C   0  0  0  0  0  0
    5.7883  -11.4013    6.7566 C   0  0  1  0  0  0
    4.5437  -10.6756    6.1800 C   0  0  0  0  0  0
    5.8496  -12.8433    6.1930 C   0  0  0  0  0  0
    5.9495  -12.7890    4.6478 C   0  0  2  0  0  0
    7.2327  -12.0235    4.2384 C   0  0  0  0  0  0
    4.7083  -12.0519    4.0792 C   0  0  0  0  0  0
   -3.8524    7.7144   -3.1626 H   0  0  0  0  0  0
   -4.1203    8.7714   -1.7797 H   0  0  0  0  0  0
   -4.1424    7.0299   -1.5666 H   0  0  0  0  0  0
   -1.9956    7.9827   -0.7409 H   0  0  0  0  0  0
   -1.5532    9.0218   -3.5799 H   0  0  0  0  0  0
   -0.3977    9.1171   -2.2541 H   0  0  0  0  0  0
   -1.9090   10.0077   -2.1647 H   0  0  0  0  0  0
   -1.5549    6.3857   -3.3044 H   0  0  0  0  0  0
   -0.3702    6.6142   -2.0244 H   0  0  0  0  0  0
   -2.2922    3.5596    0.1738 H   0  0  0  0  0  0
   -3.2880    3.1054   -1.1872 H   0  0  0  0  0  0
   -2.3503    1.0832   -0.3235 H   0  0  0  0  0  0
   -1.5595    1.3670   -1.8433 H   0  0  0  0  0  0
    0.4465    2.2941   -0.6204 H   0  0  0  0  0  0
   -0.3724    2.0418    0.8990 H   0  0  0  0  0  0
   -0.4563   -0.4227    0.4398 H   0  0  0  0  0  0
    0.3712   -0.1707   -1.0772 H   0  0  0  0  0  0
    2.3337    0.8009    0.1715 H   0  0  0  0  0  0
    1.5290    0.4839    1.6821 H   0  0  0  0  0  0
    2.3713   -1.6438   -0.3527 H   0  0  0  0  0  0
    3.2573   -1.2159    1.0836 H   0  0  0  0  0  0
    1.2747   -1.9375    2.4922 H   0  0  0  0  0  0
    0.4683   -2.4684    1.0371 H   0  0  0  0  0  0
    2.3484   -4.0717    0.5822 H   0  0  0  0  0  0
    3.1401   -3.5502    2.0485 H   0  0  0  0  0  0
    1.1565   -4.3324    3.3870 H   0  0  0  0  0  0
    0.3861   -4.8745    1.9166 H   0  0  0  0  0  0
    2.2849   -6.4735    1.5167 H   0  0  0  0  0  0
    3.0509   -5.9216    2.9872 H   0  0  0  0  0  0
    1.0411   -6.7232    4.3124 H   0  0  0  0  0  0
    0.3000   -7.2572    2.8512 H   0  0  0  0  0  0
    1.5395   -9.1605    2.8587 H   0  0  0  0  0  0
    2.8736  -10.5452    3.4190 H   0  0  0  0  0  0
    6.0135   -9.7882    3.1361 H   0  0  0  0  0  0
    5.9211   -8.8250    4.5805 H   0  0  0  0  0  0
    8.0767  -10.0402    4.5130 H   0  0  0  0  0  0
    7.9525  -11.1100    6.7694 H   0  0  0  0  0  0
    7.0496   -9.6187    6.7563 H   0  0  0  0  0  0
    5.7176  -11.4381    7.8445 H   0  0  0  0  0  0
    4.4799   -9.6795    6.6196 H   0  0  0  0  0  0
    3.6360  -11.1944    6.4936 H   0  0  0  0  0  0
    6.7054  -13.3773    6.6094 H   0  0  0  0  0  0
    4.9656  -13.4065    6.4961 H   0  0  0  0  0  0
    5.9873  -13.8036    4.2489 H   0  0  0  0  0  0
    7.3318  -12.0036    3.1520 H   0  0  0  0  0  0
    8.1176  -12.5401    4.6132 H   0  0  0  0  0  0
    3.8060  -12.6113    4.3336 H   0  0  0  0  0  0
    4.7547  -12.0501    2.9884 H   0  0  0  0  0  0
  1  2  1  0  0  0
  1 33  1  0  0  0
  1 34  1  0  0  0
  1 35  1  0  0  0
  2  3  1  0  0  0
  2  4  1  0  0  0
  2 36  1  0  0  0
  3 37  1  0  0  0
  3 38  1  0  0  0
  3 39  1  0  0  0
  4  5  1  0  0  0
  4 40  1  0  0  0
  4 41  1  0  0  0
  5  6  1  0  0  0
  6  7  2  0  0  0
  6  8  1  0  0  0
  8  9  1  0  0  0
  8 42  1  0  0  0
  8 43  1  0  0  0
  9 10  1  0  0  0
  9 44  1  0  0  0
  9 45  1  0  0  0
 10 11  1  0  0  0
 10 46  1  0  0  0
 10 47  1  0  0  0
 11 12  1  0  0  0
 11 48  1  0  0  0
 11 49  1  0  0  0
 12 13  1  0  0  0
 12 50  1  0  0  0
 12 51  1  0  0  0
 13 14  1  0  0  0
 13 52  1  0  0  0
 13 53  1  0  0  0
 14 15  1  0  0  0
 14 54  1  0  0  0
 14 55  1  0  0  0
 15 16  1  0  0  0
 15 56  1  0  0  0
 15 57  1  0  0  0
 16 17  1  0  0  0
 16 58  1  0  0  0
 16 59  1  0  0  0
 17 18  1  0  0  0
 17 60  1  0  0  0
 17 61  1  0  0  0
 18 19  1  0  0  0
 18 62  1  0  0  0
 18 63  1  0  0  0
 19 20  1  0  0  0
 19 64  1  0  0  0
 20 21  2  0  0  0
 20 22  1  0  0  0
 22 23  1  0  0  0
 22 65  1  0  0  0
 23 28  1  0  0  0
 23 32  1  0  0  0
 23 24  1  0  0  0
 24 25  1  0  0  0
 24 66  1  0  0  0
 24 67  1  0  0  0
 25 31  1  0  0  0
 25 26  1  0  0  0
 25 68  1  0  0  0
 26 27  1  0  0  0
 26 69  1  0  0  0
 26 70  1  0  0  0
 27 28  1  0  0  0
 27 29  1  0  0  0
 27 71  1  0  0  0
 28 72  1  0  0  0
 28 73  1  0  0  0
 29 30  1  0  0  0
 29 74  1  0  0  0
 29 75  1  0  0  0
 30 31  1  0  0  0
 30 32  1  0  0  0
 30 76  1  0  0  0
 31 77  1  0  0  0
 31 78  1  0  0  0
 32 79  1  0  0  0
 32 80  1  0  0  0
M  END
> <s_m_entry_id>
53

> <s_m_entry_name>
entry

> <i_lp_mmshare_version>
47013

> <i_f3d_flags>
0

> <s_epik_input>
W0NIM11bQ0hdKFtDSDNdKVtDSDJdT0MoPU8pW0NIMl1bQ0gyXVtDSDJdW0NIMl1bQ0gyXVtDSDJdW0NIMl1bQ0gyXVtDSDJdW0NIMl1bQ0gyXVtOSF1DKD1PKVtOSF1DMTJbQ0gyXVtDQEhdM1tDSDJdW0NAQEhdKFtDSDJdMSlbQ0gyXVtDQEhdKFtDSDJdMylbQ0gyXTI=

> <s_epik_cmdline>
J2VwaWtfcHl0aG9uJywgJy1waCcsICc3LjQnLCAnLXRuJywgJzgnLCAnLW1hJywgJzIwMCcsICctaW1hZScsICc8aW5maWxlLm1hZT4nLCAnLW9tYWUnLCAnPG91dGZpbGUubWFlPic=

> <r_epik_Ionization_Penalty>
  0.0000

> <r_epik_Ionization_Penalty_Charging>
  0.0000

> <r_epik_Ionization_Penalty_Neutral>
  0.0000

> <r_epik_State_Penalty>
  0.0000

> <r_epik_Charging_Adjusted_Penalty>
0

> <i_epik_Tot_Q>
0

> <i_epik_Tot_abs_Q>
0

> <s_lp_Force_Field>
OPLS3e

> <r_lp_Energy>
28.537449

> <b_lp_Chiralities_Consistent>
1

> <s_lp_Variant>
16066763-1

> <s_m_job_name>
ligprep_5

> <s_m_Source_Path>
/home/andre/Documents/projects/Esterase/data/FINAL_STUFF/Compounds/MAE_external

> <s_m_Source_File>
53.mae

> <i_m_Source_File_Index>
1

> <r_lp_tautomer_probability>
1

> <s_epik_Chemistry_Notes>
This compound has an ester and may undergo hydrolysis at high or low pH.

$$$$
