56
                    3D
 Schrodinger Suite 2021-1.
 83 86  0  0  1  0            999 V2000
   -4.4652    5.8674    3.2285 C   0  0  0  0  0  0
   -3.1167    6.1250    2.9658 C   0  0  0  0  0  0
   -2.5364    7.3203    3.4223 C   0  0  0  0  0  0
   -3.3085    8.2451    4.1208 C   0  0  0  0  0  0
   -4.6528    7.9798    4.3685 C   0  0  0  0  0  0
   -5.2341    6.7944    3.9269 C   0  0  0  0  0  0
   -2.4283    5.1217    2.2596 N   0  0  0  0  0  0
   -1.1963    5.1526    1.7088 C   0  0  0  0  0  0
   -0.8432    3.9108    1.0832 C   0  0  0  0  0  0
   -0.4173    6.1047    1.6904 O   0  0  0  0  0  0
   -1.1078    3.5725   -0.2589 C   0  0  0  0  0  0
   -0.6417    2.2735   -0.4470 C   0  0  0  0  0  0
   -0.1578    1.8006    0.7620 N   0  0  0  0  0  0
   -0.2810    2.7961    1.7230 C   0  0  0  0  0  0
   -1.7367    4.4257   -1.3154 C   0  0  0  0  0  0
    0.4034    0.4605    0.9803 C   0  0  0  0  0  0
    1.9497    0.4866    1.0273 C   0  0  0  0  0  0
    2.5802   -0.8904    1.3274 C   0  0  2  0  0  0
    4.1122   -0.8064    1.5391 C   0  0  0  0  0  0
    2.2713   -1.7850    0.2743 O   0  0  0  0  0  0
    4.7761   -2.0880    2.0971 C   0  0  2  0  0  0
    6.2383   -1.8328    2.5367 C   0  0  0  0  0  0
    4.7411   -3.1183    1.1252 O   0  0  0  0  0  0
    6.9081   -3.0151    3.2471 C   0  0  0  0  0  0
    6.2809   -3.3552    4.3994 O   0  0  0  0  0  0
    7.9091   -3.5579    2.7768 O   0  0  0  0  0  0
    6.7454   -4.4299    5.2121 C   0  0  0  0  0  0
   -3.0181    4.9545   -1.1326 C   0  0  0  0  0  0
   -3.5977    5.7386   -2.1263 C   0  0  0  0  0  0
   -2.8958    5.9916   -3.3027 C   0  0  0  0  0  0
   -1.6198    5.4667   -3.4947 C   0  0  0  0  0  0
   -1.0404    4.6829   -2.5005 C   0  0  0  0  0  0
   -0.6792    1.4654   -1.7029 C   0  0  0  0  0  0
    0.5036    1.0591   -2.3264 C   0  0  0  0  0  0
    0.4506    0.3189   -3.5043 C   0  0  0  0  0  0
   -0.7845   -0.0060   -4.0614 C   0  0  0  0  0  0
   -1.9673    0.4055   -3.4506 C   0  0  0  0  0  0
   -1.9148    1.1442   -2.2716 C   0  0  0  0  0  0
    0.1572    2.5799    3.1820 C   0  0  0  0  0  0
   -1.0463    2.5218    4.1398 C   0  0  0  0  0  0
    1.1947    3.6237    3.6364 C   0  0  0  0  0  0
   -0.8356   -0.7221   -5.2071 F   0  0  0  0  0  0
    7.9008   -4.0076    6.1019 C   0  0  0  0  0  0
    9.1047   -4.5997    6.1132 C   0  0  0  0  0  0
   -4.9264    4.9499    2.8909 H   0  0  0  0  0  0
   -1.4962    7.5535    3.2618 H   0  0  0  0  0  0
   -2.8647    9.1648    4.4721 H   0  0  0  0  0  0
   -5.2490    8.6990    4.9108 H   0  0  0  0  0  0
   -6.2767    6.5943    4.1258 H   0  0  0  0  0  0
   -2.9446    4.2619    2.1455 H   0  0  0  0  0  0
   -0.0186    0.0504    1.8984 H   0  0  0  0  0  0
    0.0550   -0.2127    0.1969 H   0  0  0  0  0  0
    2.3467    0.8715    0.0880 H   0  0  0  0  0  0
    2.2773    1.1938    1.7894 H   0  0  0  0  0  0
    2.1276   -1.2822    2.2399 H   0  0  0  0  0  0
    4.6033   -0.5019    0.6130 H   0  0  0  0  0  0
    4.3047   -0.0000    2.2488 H   0  0  0  0  0  0
    2.6606   -1.4481   -0.5363 H   0  0  0  0  0  0
    4.1982   -2.4246    2.9599 H   0  0  0  0  0  0
    6.8388   -1.5589    1.6682 H   0  0  0  0  0  0
    6.2799   -0.9756    3.2092 H   0  0  0  0  0  0
    3.8306   -3.2361    0.8423 H   0  0  0  0  0  0
    5.9231   -4.7576    5.8482 H   0  0  0  0  0  0
    7.0248   -5.2898    4.6001 H   0  0  0  0  0  0
   -3.5715    4.7534   -0.2274 H   0  0  0  0  0  0
   -4.5879    6.1467   -1.9866 H   0  0  0  0  0  0
   -3.3459    6.5994   -4.0738 H   0  0  0  0  0  0
   -1.0823    5.6664   -4.4098 H   0  0  0  0  0  0
   -0.0504    4.2775   -2.6524 H   0  0  0  0  0  0
    1.4628    1.3256   -1.9103 H   0  0  0  0  0  0
    1.3637    0.0033   -3.9872 H   0  0  0  0  0  0
   -2.9211    0.1547   -3.8909 H   0  0  0  0  0  0
   -2.8334    1.4659   -1.8022 H   0  0  0  0  0  0
    0.6573    1.6216    3.3047 H   0  0  0  0  0  0
   -1.7704    1.7711    3.8207 H   0  0  0  0  0  0
   -1.5631    3.4782    4.2079 H   0  0  0  0  0  0
   -0.7289    2.2607    5.1500 H   0  0  0  0  0  0
    2.0452    3.6599    2.9543 H   0  0  0  0  0  0
    1.5815    3.3843    4.6276 H   0  0  0  0  0  0
    0.7720    4.6261    3.6950 H   0  0  0  0  0  0
    7.7174   -3.1690    6.7580 H   0  0  0  0  0  0
    9.3243   -5.4380    5.4679 H   0  0  0  0  0  0
    9.8888   -4.2519    6.7695 H   0  0  0  0  0  0
  1  2  2  0  0  0
  1  6  1  0  0  0
  1 45  1  0  0  0
  2  3  1  0  0  0
  2  7  1  0  0  0
  3  4  2  0  0  0
  3 46  1  0  0  0
  4  5  1  0  0  0
  4 47  1  0  0  0
  5  6  2  0  0  0
  5 48  1  0  0  0
  6 49  1  0  0  0
  7  8  1  0  0  0
  7 50  1  0  0  0
  8  9  1  0  0  0
  8 10  2  0  0  0
  9 14  2  0  0  0
  9 11  1  0  0  0
 11 12  2  0  0  0
 11 15  1  0  0  0
 12 13  1  0  0  0
 12 33  1  0  0  0
 13 14  1  0  0  0
 13 16  1  0  0  0
 14 39  1  0  0  0
 15 32  2  0  0  0
 15 28  1  0  0  0
 16 17  1  0  0  0
 16 51  1  0  0  0
 16 52  1  0  0  0
 17 18  1  0  0  0
 17 53  1  0  0  0
 17 54  1  0  0  0
 18 19  1  0  0  0
 18 20  1  0  0  0
 18 55  1  0  0  0
 19 21  1  0  0  0
 19 56  1  0  0  0
 19 57  1  0  0  0
 20 58  1  0  0  0
 21 22  1  0  0  0
 21 23  1  0  0  0
 21 59  1  0  0  0
 22 24  1  0  0  0
 22 60  1  0  0  0
 22 61  1  0  0  0
 23 62  1  0  0  0
 24 25  1  0  0  0
 24 26  2  0  0  0
 25 27  1  0  0  0
 27 43  1  0  0  0
 27 63  1  0  0  0
 27 64  1  0  0  0
 28 29  2  0  0  0
 28 65  1  0  0  0
 29 30  1  0  0  0
 29 66  1  0  0  0
 30 31  2  0  0  0
 30 67  1  0  0  0
 31 32  1  0  0  0
 31 68  1  0  0  0
 32 69  1  0  0  0
 33 38  2  0  0  0
 33 34  1  0  0  0
 34 35  2  0  0  0
 34 70  1  0  0  0
 35 36  1  0  0  0
 35 71  1  0  0  0
 36 37  2  0  0  0
 36 42  1  0  0  0
 37 38  1  0  0  0
 37 72  1  0  0  0
 38 73  1  0  0  0
 39 40  1  0  0  0
 39 41  1  0  0  0
 39 74  1  0  0  0
 40 75  1  0  0  0
 40 76  1  0  0  0
 40 77  1  0  0  0
 41 78  1  0  0  0
 41 79  1  0  0  0
 41 80  1  0  0  0
 43 44  2  0  0  0
 43 81  1  0  0  0
 44 82  1  0  0  0
 44 83  1  0  0  0
M  END
> <s_m_entry_id>
56

> <s_m_entry_name>
entry

> <i_lp_mmshare_version>
47013

> <i_f3d_flags>
0

> <s_epik_input>
W2NIXTFbY0hdW2NIXVtjSF1bY0hdYzFbTkhdQyg9TyljMmMoLWMzW2NIXVtjSF1bY0hdW2NIXVtjSF0zKWMoLWM0W2NIXVtjSF1jKEYpW2NIXVtjSF00KW4oYzJbQ0hdKFtDSDNdKVtDSDNdKVtDSDJdW0NIMl1bQ0BASF0oW09IXSlbQ0gyXVtDQEBIXShbT0hdKVtDSDJdQyg9TylPW0NIMl1bQ0hdPVtDSDJd

> <s_epik_cmdline>
J2VwaWtfcHl0aG9uJywgJy1waCcsICc3LjQnLCAnLXRuJywgJzgnLCAnLW1hJywgJzIwMCcsICctaW1hZScsICc8aW5maWxlLm1hZT4nLCAnLW9tYWUnLCAnPG91dGZpbGUubWFlPic=

> <r_epik_Ionization_Penalty>
  0.0000

> <r_epik_Ionization_Penalty_Charging>
  0.0000

> <r_epik_Ionization_Penalty_Neutral>
  0.0000

> <r_epik_State_Penalty>
  0.0000

> <r_epik_Charging_Adjusted_Penalty>
0

> <i_epik_Tot_Q>
0

> <i_epik_Tot_abs_Q>
0

> <s_lp_Force_Field>
OPLS3e

> <r_lp_Energy>
42.679705

> <b_lp_Chiralities_Consistent>
1

> <s_lp_Variant>
70651915-1

> <s_m_job_name>
ligprep_11

> <s_m_Source_Path>
/home/andre/Documents/projects/Esterase/data/FINAL_STUFF/Compounds/MAE_external

> <s_m_Source_File>
56.mae

> <i_m_Source_File_Index>
1

> <r_lp_tautomer_probability>
1

> <s_epik_Chemistry_Notes>
This compound has an ester and may undergo hydrolysis at high or low pH.

$$$$
