58
                    3D
 Schrodinger Suite 2021-1.
 56 56  0  0  1  0            999 V2000
   -6.6921    4.2519   -5.6252 C   0  0  0  0  0  0
   -6.6013    3.1096   -4.8311 C   0  0  0  0  0  0
   -7.2233    3.0862   -3.5716 C   0  0  0  0  0  0
   -7.9394    4.2098   -3.1425 C   0  0  0  0  0  0
   -8.0344    5.3643   -3.9382 C   0  0  0  0  0  0
   -7.3994    5.3696   -5.1859 C   0  0  0  0  0  0
   -8.7218    6.5065   -3.5651 O   0  0  0  0  0  0
   -7.4663    6.4738   -5.9972 O   0  0  0  0  0  0
   -7.1734    1.8624   -2.6542 C   0  0  0  0  0  0
   -6.3050    1.9916   -1.4811 N   0  0  0  0  0  0
   -4.9819    2.2371   -1.4817 C   0  0  0  0  0  0
   -4.3241    2.3416   -0.0941 C   0  0  0  0  0  0
   -2.9057    2.1561   -0.1878 O   0  0  0  0  0  0
   -2.3147    0.9532    0.0235 C   0  0  0  0  0  0
   -0.7873    1.0439   -0.0843 C   0  0  0  0  0  0
   -2.8995   -0.1048    0.2682 O   0  0  0  0  0  0
   -4.3258    2.4309   -2.5061 O   0  0  0  0  0  0
   -9.3790    6.5458   -2.3029 C   0  0  0  0  0  0
   -0.0503   -0.3028    0.0734 C   0  0  0  0  0  0
    1.4797   -0.1470    0.0386 C   0  0  0  0  0  0
    2.2187   -1.4941    0.1634 C   0  0  0  0  0  0
    3.7561   -1.3840    0.1352 C   0  0  0  0  0  0
    4.3622   -0.6897    1.3705 C   0  0  0  0  0  0
    5.9016   -0.6878    1.3640 C   0  0  0  0  0  0
    6.5044   -0.0128    2.6092 C   0  0  0  0  0  0
   -5.5269    1.4812   -5.6047 I   0  0  0  0  0  0
   -6.2108    4.2681   -6.5925 H   0  0  0  0  0  0
   -8.4167    4.1706   -2.1749 H   0  0  0  0  0  0
   -7.9785    7.1873   -5.6090 H   0  0  0  0  0  0
   -8.1834    1.6770   -2.2862 H   0  0  0  0  0  0
   -6.9109    0.9531   -3.1938 H   0  0  0  0  0  0
   -6.7545    1.8424   -0.5894 H   0  0  0  0  0  0
   -4.5365    3.3167    0.3448 H   0  0  0  0  0  0
   -4.7842    1.6046    0.5695 H   0  0  0  0  0  0
   -9.8657    7.5132   -2.1808 H   0  0  0  0  0  0
   -8.6728    6.4259   -1.4799 H   0  0  0  0  0  0
  -10.1503    5.7777   -2.2290 H   0  0  0  0  0  0
    1.7755    0.3428   -0.8905 H   0  0  0  0  0  0
    1.7833    0.5194    0.8465 H   0  0  0  0  0  0
    1.9101   -2.0006    1.0792 H   0  0  0  0  0  0
    1.9038   -2.1436   -0.6547 H   0  0  0  0  0  0
    4.1694   -2.3909    0.0597 H   0  0  0  0  0  0
    4.0693   -0.8648   -0.7718 H   0  0  0  0  0  0
    6.1364    1.0122    2.6788 H   0  0  0  0  0  0
    6.1507   -0.5264    3.5046 H   0  0  0  0  0  0
   -0.3140    1.9991   -0.2575 H   0  0  0  0  0  0
   -0.8449   -1.5903    0.2394 C   0  0  0  0  0  0
   -0.1400   -2.4535    0.3381 H   0  0  0  0  0  0
   -1.4802   -1.5206    1.1578 H   0  0  0  0  0  0
   -1.4987   -1.7431   -0.6556 H   0  0  0  0  0  0
    3.8251   -0.2331    2.1887 H   0  0  0  0  0  0
    6.6585   -1.3135    0.2012 C   0  0  0  0  0  0
    7.7591   -1.2149    0.3765 H   0  0  0  0  0  0
    6.3891   -2.3965    0.1205 H   0  0  0  0  0  0
    6.3835   -0.7890   -0.7481 H   0  0  0  0  0  0
    7.5934   -0.0270    2.5638 H   0  0  0  0  0  0
  1  2  2  0  0  0
  1  6  1  0  0  0
  1 27  1  0  0  0
  2  3  1  0  0  0
  2 26  1  0  0  0
  3  4  2  0  0  0
  3  9  1  0  0  0
  4  5  1  0  0  0
  4 28  1  0  0  0
  5  6  2  0  0  0
  5  7  1  0  0  0
  6  8  1  0  0  0
  7 18  1  0  0  0
  8 29  1  0  0  0
  9 10  1  0  0  0
  9 30  1  0  0  0
  9 31  1  0  0  0
 10 11  1  0  0  0
 10 32  1  0  0  0
 11 12  1  0  0  0
 11 17  2  0  0  0
 12 13  1  0  0  0
 12 33  1  0  0  0
 12 34  1  0  0  0
 13 14  1  0  0  0
 14 15  1  0  0  0
 14 16  2  0  0  0
 15 19  2  0  0  0
 15 46  1  0  0  0
 18 35  1  0  0  0
 18 36  1  0  0  0
 18 37  1  0  0  0
 19 20  1  0  0  0
 19 47  1  0  0  0
 20 21  1  0  0  0
 20 38  1  0  0  0
 20 39  1  0  0  0
 21 22  1  0  0  0
 21 40  1  0  0  0
 21 41  1  0  0  0
 22 23  1  0  0  0
 22 42  1  0  0  0
 22 43  1  0  0  0
 23 24  2  0  0  0
 23 51  1  0  0  0
 24 25  1  0  0  0
 24 52  1  0  0  0
 25 44  1  0  0  0
 25 45  1  0  0  0
 25 56  1  0  0  0
 47 48  1  0  0  0
 47 49  1  0  0  0
 47 50  1  0  0  0
 52 53  1  0  0  0
 52 54  1  0  0  0
 52 55  1  0  0  0
M  END
> <s_m_entry_id>
58

> <s_m_entry_name>
entry

> <i_lp_mmshare_version>
47013

> <i_f3d_flags>
0

> <s_epik_input>
SWMxW2NIXWMoW09IXSljKE9bQ0gzXSlbY0hdYzFbQ0gyXVtOSF1DKD1PKVtDSDJdT0MoPU8pW0NIMl1bQ0gyXVtDSDJdW0NIMl1bQ0gyXVtDSDJdW0NIMl1bQ0gyXVtDSDJdW0NIMl1bQ0gyXVtDSDNd

> <s_epik_cmdline>
J2VwaWtfcHl0aG9uJywgJy1waCcsICc3LjQnLCAnLXRuJywgJzgnLCAnLW1hJywgJzIwMCcsICctaW1hZScsICc8aW5maWxlLm1hZT4nLCAnLW9tYWUnLCAnPG91dGZpbGUubWFlPic=

> <r_epik_Ionization_Penalty>
  0.0111

> <r_epik_Ionization_Penalty_Charging>
  0.0000

> <r_epik_Ionization_Penalty_Neutral>
  0.0111

> <r_epik_State_Penalty>
  0.0085

> <r_epik_Charging_Adjusted_Penalty>
0.00850546152277243

> <i_epik_Tot_Q>
0

> <i_epik_Tot_abs_Q>
0

> <s_lp_Force_Field>
OPLS3e

> <r_lp_Energy>
23.196115

> <b_lp_Chiralities_Consistent>
1

> <s_lp_Variant>
135373260-1

> <s_m_job_name>
ligprep_13

> <s_m_Source_Path>
/home/andre/Documents/projects/Esterase/data/FINAL_STUFF/Compounds/MAE_external

> <s_m_Source_File>
58.mae

> <i_m_Source_File_Index>
1

> <r_lp_tautomer_probability>
0.999999999999776

> <s_epik_Chemistry_Notes>
This compound has an ester and may undergo hydrolysis at high or low pH.

$$$$
