59
                    3D
 Schrodinger Suite 2021-1.
 63 63  0  0  1  0            999 V2000
   -7.1752    1.2212    0.3045 C   0  0  0  0  0  0
   -5.7363    1.3533    0.7745 C   0  0  0  0  0  0
   -4.7935    1.9233   -0.0073 C   0  0  0  0  0  0
   -3.3258    2.1510    0.3203 C   0  0  0  0  0  0
   -2.3851    1.1521   -0.3773 C   0  0  0  0  0  0
   -0.9124    1.3251   -0.0160 C   0  0  0  0  0  0
   -0.2621    0.3546    0.6728 C   0  0  0  0  0  0
    1.1292    0.3730    1.1225 C   0  0  0  0  0  0
    1.7933    1.3986    1.2907 O   0  0  0  0  0  0
    1.5783   -0.8771    1.3797 O   0  0  0  0  0  0
    2.9056   -1.1137    1.8500 C   0  0  0  0  0  0
    3.1891   -2.6227    1.8593 C   0  0  0  0  0  0
    2.5785   -3.3862    1.1077 O   0  0  0  0  0  0
    4.1800   -3.0262    2.6742 N   0  0  0  0  0  0
    4.6423   -4.4055    2.8356 C   0  0  0  0  0  0
    6.1632   -4.5213    2.8541 C   0  0  0  0  0  0
    6.8065   -4.7828    4.0693 C   0  0  0  0  0  0
    8.2042   -4.9116    4.1435 C   0  0  0  0  0  0
    8.9510   -4.7817    2.9659 C   0  0  0  0  0  0
    8.3171   -4.5308    1.7496 C   0  0  0  0  0  0
    6.9305   -4.4031    1.6845 C   0  0  0  0  0  0
    6.0712   -4.0510   -0.1964 I   0  0  0  0  0  0
   10.3174   -4.9023    2.9889 O   0  0  0  0  0  0
    8.8948   -5.1613    5.3169 O   0  0  0  0  0  0
    8.1757   -5.2897    6.5387 C   0  0  0  0  0  0
   -7.3209    1.6432   -0.6911 H   0  0  0  0  0  0
   -7.8468    1.7434    0.9865 H   0  0  0  0  0  0
   -5.0861    2.2804   -0.9844 H   0  0  0  0  0  0
   -3.0806    3.1701    0.0190 H   0  0  0  0  0  0
   -3.1598    2.1248    1.3962 H   0  0  0  0  0  0
   -2.7072    0.1377   -0.1333 H   0  0  0  0  0  0
   -2.4891    1.2370   -1.4602 H   0  0  0  0  0  0
   -0.8071   -0.5406    0.9393 H   0  0  0  0  0  0
    3.6594   -0.6016    1.2479 H   0  0  0  0  0  0
    2.9866   -0.7320    2.8703 H   0  0  0  0  0  0
    4.5927   -2.3462    3.2961 H   0  0  0  0  0  0
    4.2216   -4.7869    3.7674 H   0  0  0  0  0  0
    4.2508   -5.0678    2.0606 H   0  0  0  0  0  0
    6.2026   -4.8795    4.9587 H   0  0  0  0  0  0
    8.9029   -4.4372    0.8463 H   0  0  0  0  0  0
   10.7184   -4.8024    2.1226 H   0  0  0  0  0  0
    8.8778   -5.4710    7.3524 H   0  0  0  0  0  0
    7.4822   -6.1313    6.5077 H   0  0  0  0  0  0
    7.6246   -4.3787    6.7768 H   0  0  0  0  0  0
   -1.1895    1.8148    0.9175 H   0  0  0  0  0  0
    0.0447   -0.1085   -0.2649 H   0  0  0  0  0  0
   -0.3102    1.9119   -0.7096 H   0  0  0  0  0  0
   -5.9648    2.3243    1.2138 H   0  0  0  0  0  0
   -4.5513    0.9490   -0.4319 H   0  0  0  0  0  0
   -5.3859    0.5861    1.4650 H   0  0  0  0  0  0
   -7.5846   -0.2478    0.2482 C   0  0  0  0  0  0
   -6.9171   -0.7939   -0.4646 H   0  0  0  0  0  0
   -7.4915   -0.7002    1.2673 H   0  0  0  0  0  0
   -9.0312   -0.3549   -0.2257 C   0  0  0  0  0  0
   -9.6986    0.1912    0.4871 H   0  0  0  0  0  0
   -9.1242    0.0975   -1.2449 H   0  0  0  0  0  0
   -9.4405   -1.8239   -0.2820 C   0  0  0  0  0  0
   -8.7731   -2.3700   -0.9949 H   0  0  0  0  0  0
   -9.3475   -2.2763    0.7371 H   0  0  0  0  0  0
  -10.8871   -1.9310   -0.7559 C   0  0  0  0  0  0
  -11.1873   -3.0081   -0.7972 H   0  0  0  0  0  0
  -11.5546   -1.3849   -0.0431 H   0  0  0  0  0  0
  -10.9802   -1.4786   -1.7751 H   0  0  0  0  0  0
  1  2  1  0  0  0
  1 26  1  0  0  0
  1 27  1  0  0  0
  1 51  1  0  0  0
  2  3  1  0  0  0
  2 48  1  0  0  0
  2 50  1  0  0  0
  3  4  1  0  0  0
  3 28  1  0  0  0
  3 49  1  0  0  0
  4  5  1  0  0  0
  4 29  1  0  0  0
  4 30  1  0  0  0
  5  6  1  0  0  0
  5 31  1  0  0  0
  5 32  1  0  0  0
  6  7  1  0  0  0
  6 45  1  0  0  0
  6 47  1  0  0  0
  7  8  1  0  0  0
  7 33  1  0  0  0
  7 46  1  0  0  0
  8  9  2  0  0  0
  8 10  1  0  0  0
 10 11  1  0  0  0
 11 12  1  0  0  0
 11 34  1  0  0  0
 11 35  1  0  0  0
 12 13  2  0  0  0
 12 14  1  0  0  0
 14 15  1  0  0  0
 14 36  1  0  0  0
 15 16  1  0  0  0
 15 37  1  0  0  0
 15 38  1  0  0  0
 16 21  2  0  0  0
 16 17  1  0  0  0
 17 18  2  0  0  0
 17 39  1  0  0  0
 18 19  1  0  0  0
 18 24  1  0  0  0
 19 20  2  0  0  0
 19 23  1  0  0  0
 20 21  1  0  0  0
 20 40  1  0  0  0
 21 22  1  0  0  0
 23 41  1  0  0  0
 24 25  1  0  0  0
 25 42  1  0  0  0
 25 43  1  0  0  0
 25 44  1  0  0  0
 51 52  1  0  0  0
 51 53  1  0  0  0
 51 54  1  0  0  0
 54 55  1  0  0  0
 54 56  1  0  0  0
 54 57  1  0  0  0
 57 58  1  0  0  0
 57 59  1  0  0  0
 57 60  1  0  0  0
 60 61  1  0  0  0
 60 62  1  0  0  0
 60 63  1  0  0  0
M  END
> <s_m_entry_id>
59

> <s_m_entry_name>
entry

> <i_lp_mmshare_version>
47013

> <i_f3d_flags>
0

> <s_epik_input>
W0NIM11DKFtDSDNdKT1bQ0hdW0NIMl1bQ0gyXS9DKFtDSDNdKT1bQ0hdL0MoPU8pT1tDSDJdQyg9TylbTkhdW0NIMl1jMVtjSF1jKE9bQ0gzXSljKFtPSF0pW2NIXWMxSQ==

> <s_epik_cmdline>
J2VwaWtfcHl0aG9uJywgJy1waCcsICc3LjQnLCAnLXRuJywgJzgnLCAnLW1hJywgJzIwMCcsICctaW1hZScsICc8aW5maWxlLm1hZT4nLCAnLW9tYWUnLCAnPG91dGZpbGUubWFlPic=

> <r_epik_Ionization_Penalty>
  0.0109

> <r_epik_Ionization_Penalty_Charging>
  0.0000

> <r_epik_Ionization_Penalty_Neutral>
  0.0109

> <r_epik_State_Penalty>
  0.0083

> <r_epik_Charging_Adjusted_Penalty>
0.00833944162935068

> <i_epik_Tot_Q>
0

> <i_epik_Tot_abs_Q>
0

> <s_lp_Force_Field>
OPLS3e

> <r_lp_Energy>
15.324668

> <b_lp_Chiralities_Consistent>
1

> <s_lp_Variant>
M82-1

> <s_m_job_name>
ligprep_13

> <s_m_Source_Path>
/home/andre/Documents/projects/Esterase/data/FINAL_STUFF/Compounds/MAE_external

> <s_m_Source_File>
59.mae

> <i_m_Source_File_Index>
1

> <r_lp_tautomer_probability>
1

> <s_epik_Chemistry_Notes>
This compound has an ester and may undergo hydrolysis at high or low pH.

$$$$
