61
                    3D
 Schrodinger Suite 2021-1.
 61 63  0  0  1  0            999 V2000
   -4.1655    6.5849    0.8850 C   0  0  0  0  0  0
   -3.6536    7.6833    0.1939 C   0  0  0  0  0  0
   -2.4737    7.5616   -0.5398 C   0  0  0  0  0  0
   -1.8094    6.3393   -0.5832 C   0  0  0  0  0  0
   -2.3115    5.2266    0.1041 C   0  0  0  0  0  0
   -3.4970    5.3647    0.8375 C   0  0  0  0  0  0
   -1.5921    3.9214    0.0628 C   0  0  0  0  0  0
   -2.2946    2.7181   -0.0714 C   0  0  0  0  0  0
   -1.6193    1.5005   -0.0952 C   0  0  0  0  0  0
   -0.2304    1.4565    0.0186 C   0  0  0  0  0  0
    0.4790    2.6606    0.1436 C   0  0  0  0  0  0
   -0.1977    3.8761    0.1635 C   0  0  0  0  0  0
   -4.5041    9.2581    0.2594 S   0  0  0  0  0  0
   -3.7033   10.1150    1.7357 C   0  0  0  0  0  0
   -4.1537   10.0009   -0.9566 O   0  0  0  0  0  0
   -5.9100    8.9893    0.5822 O   0  0  0  0  0  0
    0.3506    0.1996    0.0129 O   0  0  0  0  0  0
    1.7327    0.0577    0.2150 C   0  0  1  0  0  0
    2.1428    0.5242    1.4797 O   0  0  0  0  0  0
    1.5285   -0.1427    2.5913 C   0  0  1  0  0  0
    1.9313   -1.6352    2.5883 C   0  0  2  0  0  0
    1.5503   -2.2678    1.2308 C   0  0  1  0  0  0
    2.0996   -1.4287    0.0488 C   0  0  2  0  0  0
    3.5019   -1.5714   -0.1096 O   0  0  0  0  0  0
    1.9406   -3.6279    1.1381 O   0  0  0  0  0  0
    1.3492   -2.3370    3.6743 O   0  0  0  0  0  0
    1.9409    0.6066    3.8708 C   0  0  0  0  0  0
    1.4248    1.9305    3.8018 O   0  0  0  0  0  0
    1.7113    2.8418    4.7512 C   0  0  0  0  0  0
    2.4260    2.6668    5.7391 O   0  0  0  0  0  0
    1.0305    4.1856    4.4859 C   0  0  0  0  0  0
    1.6482    4.9484    3.2985 C   0  0  0  0  0  0
    0.8784    6.2325    2.9646 C   0  0  0  0  0  0
   -5.0753    6.6719    1.4606 H   0  0  0  0  0  0
   -2.0686    8.4078   -1.0751 H   0  0  0  0  0  0
   -0.8996    6.2607   -1.1605 H   0  0  0  0  0  0
   -3.9027    4.5254    1.3836 H   0  0  0  0  0  0
   -3.3714    2.7204   -0.1595 H   0  0  0  0  0  0
   -2.1802    0.5823   -0.1938 H   0  0  0  0  0  0
    1.5539    2.6769    0.2371 H   0  0  0  0  0  0
    0.3720    4.7875    0.2723 H   0  0  0  0  0  0
   -4.1593   11.0965    1.8620 H   0  0  0  0  0  0
   -2.6354   10.2223    1.5473 H   0  0  0  0  0  0
   -3.8672    9.5113    2.6278 H   0  0  0  0  0  0
    2.2596    0.6834   -0.5084 H   0  0  0  0  0  0
    0.4404   -0.0798    2.5131 H   0  0  0  0  0  0
    3.0115   -1.7085    2.7272 H   0  0  0  0  0  0
    0.4615   -2.2817    1.1533 H   0  0  0  0  0  0
    1.6588   -1.7811   -0.8853 H   0  0  0  0  0  0
    3.7586   -1.1652   -0.9408 H   0  0  0  0  0  0
    2.8998   -3.6691    1.1616 H   0  0  0  0  0  0
    0.4074   -2.4266    3.5114 H   0  0  0  0  0  0
    1.5306    0.1120    4.7526 H   0  0  0  0  0  0
    3.0278    0.6224    3.9678 H   0  0  0  0  0  0
   -0.0290    4.0026    4.3028 H   0  0  0  0  0  0
    1.0830    4.7983    5.3868 H   0  0  0  0  0  0
    2.6870    5.1989    3.5202 H   0  0  0  0  0  0
    1.6737    4.3129    2.4122 H   0  0  0  0  0  0
    1.3336    6.7510    2.1204 H   0  0  0  0  0  0
    0.8688    6.9204    3.8108 H   0  0  0  0  0  0
   -0.1564    6.0142    2.6973 H   0  0  0  0  0  0
  1  2  2  0  0  0
  1  6  1  0  0  0
  1 34  1  0  0  0
  2  3  1  0  0  0
  2 13  1  0  0  0
  3  4  2  0  0  0
  3 35  1  0  0  0
  4  5  1  0  0  0
  4 36  1  0  0  0
  5  6  2  0  0  0
  5  7  1  0  0  0
  6 37  1  0  0  0
  7 12  2  0  0  0
  7  8  1  0  0  0
  8  9  2  0  0  0
  8 38  1  0  0  0
  9 10  1  0  0  0
  9 39  1  0  0  0
 10 11  2  0  0  0
 10 17  1  0  0  0
 11 12  1  0  0  0
 11 40  1  0  0  0
 12 41  1  0  0  0
 13 14  1  0  0  0
 13 15  2  0  0  0
 13 16  2  0  0  0
 14 42  1  0  0  0
 14 43  1  0  0  0
 14 44  1  0  0  0
 17 18  1  0  0  0
 18 23  1  0  0  0
 18 19  1  0  0  0
 18 45  1  0  0  0
 19 20  1  0  0  0
 20 21  1  0  0  0
 20 27  1  0  0  0
 20 46  1  0  0  0
 21 22  1  0  0  0
 21 26  1  0  0  0
 21 47  1  0  0  0
 22 23  1  0  0  0
 22 25  1  0  0  0
 22 48  1  0  0  0
 23 24  1  0  0  0
 23 49  1  0  0  0
 24 50  1  0  0  0
 25 51  1  0  0  0
 26 52  1  0  0  0
 27 28  1  0  0  0
 27 53  1  0  0  0
 27 54  1  0  0  0
 28 29  1  0  0  0
 29 30  2  0  0  0
 29 31  1  0  0  0
 31 32  1  0  0  0
 31 55  1  0  0  0
 31 56  1  0  0  0
 32 33  1  0  0  0
 32 57  1  0  0  0
 32 58  1  0  0  0
 33 59  1  0  0  0
 33 60  1  0  0  0
 33 61  1  0  0  0
M  END
> <s_m_entry_id>
61

> <s_m_entry_name>
entry

> <i_lp_mmshare_version>
47013

> <i_f3d_flags>
0

> <s_epik_input>
W0NIM11TKD1PKSg9TyljMVtjSF1bY0hdYyhbY0hdW2NIXTEpLWMyW2NIXVtjSF1jKFtjSF1bY0hdMilPW0NASF0zT1tDQEBIXShbQ0BASF0oW09IXSlbQ0BIXShbT0hdKVtDQEBIXTNbT0hdKVtDSDJdT0MoPU8pW0NIMl1bQ0gyXVtDSDNd

> <s_epik_cmdline>
J2VwaWtfcHl0aG9uJywgJy1waCcsICc3LjQnLCAnLXRuJywgJzgnLCAnLW1hJywgJzIwMCcsICctaW1hZScsICc8aW5maWxlLm1hZT4nLCAnLW9tYWUnLCAnPG91dGZpbGUubWFlPic=

> <r_epik_Ionization_Penalty>
  0.0000

> <r_epik_Ionization_Penalty_Charging>
  0.0000

> <r_epik_Ionization_Penalty_Neutral>
  0.0000

> <r_epik_State_Penalty>
  0.0000

> <r_epik_Charging_Adjusted_Penalty>
0

> <i_epik_Tot_Q>
0

> <i_epik_Tot_abs_Q>
0

> <s_lp_Force_Field>
OPLS3e

> <r_lp_Energy>
31.396408

> <b_lp_Chiralities_Consistent>
1

> <s_lp_Variant>
132527123-1

> <s_m_job_name>
ligprep_16

> <s_m_Source_Path>
/home/andre/Documents/projects/Esterase/data/FINAL_STUFF/Compounds/MAE_external

> <s_m_Source_File>
61.mae

> <i_m_Source_File_Index>
1

> <r_lp_tautomer_probability>
1

> <s_epik_Chemistry_Notes>
This compound has an ester and may undergo hydrolysis at high or low pH. This compound contains an acetal/aminal-like group ( X-CH(R)-Y where X, Y are N, S, or O) that may be acid/base labile, releasing an aldehyde.

$$$$
