62
                    3D
 Schrodinger Suite 2021-1.
 64 66  0  0  1  0            999 V2000
    1.7634    8.6334    4.5532 C   0  0  0  0  0  0
    2.1184    8.0356    5.7625 C   0  0  0  0  0  0
    2.0152    6.6533    5.9181 C   0  0  0  0  0  0
    1.5580    5.8711    4.8615 C   0  0  0  0  0  0
    1.1962    6.4567    3.6415 C   0  0  0  0  0  0
    1.3053    7.8461    3.5005 C   0  0  0  0  0  0
    0.7001    5.6154    2.5154 C   0  0  0  0  0  0
   -0.3938    6.0267    1.7452 C   0  0  0  0  0  0
   -0.8617    5.2370    0.6988 C   0  0  0  0  0  0
   -0.2470    4.0229    0.3958 C   0  0  0  0  0  0
    0.8514    3.6065    1.1631 C   0  0  0  0  0  0
    1.3161    4.3964    2.2107 C   0  0  0  0  0  0
    2.6898    9.0486    7.1243 S   0  0  0  0  0  0
    1.0910    9.5078    8.0118 C   0  0  0  0  0  0
    3.4857    8.1919    8.0107 O   0  0  0  0  0  0
    3.2733   10.2681    6.5540 O   0  0  0  0  0  0
   -0.7881    3.3051   -0.6559 O   0  0  0  0  0  0
   -0.1950    2.1074   -1.0726 C   0  0  1  0  0  0
   -0.4252    1.1016   -0.1132 O   0  0  0  0  0  0
    0.1642   -0.1686   -0.4199 C   0  0  1  0  0  0
   -0.3627   -0.7229   -1.7707 C   0  0  2  0  0  0
   -0.3053    0.3436   -2.8882 C   0  0  1  0  0  0
   -0.8690    1.7028   -2.3966 C   0  0  2  0  0  0
   -0.7556    2.7099   -3.3879 O   0  0  0  0  0  0
    1.0091    0.4602   -3.4118 O   0  0  0  0  0  0
   -1.6809   -1.2199   -1.6218 O   0  0  0  0  0  0
    1.7021   -0.1531   -0.2730 C   0  0  0  0  0  0
    2.2061   -1.4818   -0.2138 O   0  0  0  0  0  0
    3.5332   -1.7082   -0.1403 C   0  0  0  0  0  0
    4.4199   -0.8525   -0.1470 O   0  0  0  0  0  0
    3.8669   -3.1958   -0.0228 C   0  0  0  0  0  0
    4.1474   -3.6192    1.4316 C   0  0  0  0  0  0
    4.4691   -5.1174    1.5584 C   0  0  0  0  0  0
    4.7471   -5.5482    3.0050 C   0  0  0  0  0  0
    1.8377    9.7034    4.4256 H   0  0  0  0  0  0
    2.2822    6.1819    6.8527 H   0  0  0  0  0  0
    1.4775    4.8025    4.9994 H   0  0  0  0  0  0
    1.0386    8.3235    2.5687 H   0  0  0  0  0  0
   -0.8948    6.9593    1.9606 H   0  0  0  0  0  0
   -1.7107    5.5692    0.1190 H   0  0  0  0  0  0
    1.3544    2.6724    0.9671 H   0  0  0  0  0  0
    2.1650    4.0544    2.7848 H   0  0  0  0  0  0
    1.3329   10.1282    8.8741 H   0  0  0  0  0  0
    0.5916    8.5956    8.3374 H   0  0  0  0  0  0
    0.4500   10.0594    7.3247 H   0  0  0  0  0  0
    0.8818    2.2448   -1.1922 H   0  0  0  0  0  0
   -0.1946   -0.8162    0.3825 H   0  0  0  0  0  0
    0.2178   -1.5995   -2.0634 H   0  0  0  0  0  0
   -0.8999    0.0047   -3.7389 H   0  0  0  0  0  0
   -1.9366    1.5979   -2.1942 H   0  0  0  0  0  0
    0.1096    2.6341   -3.7971 H   0  0  0  0  0  0
    1.3001   -0.4065   -3.7050 H   0  0  0  0  0  0
   -1.6562   -1.9896   -1.0485 H   0  0  0  0  0  0
    2.1655    0.3851   -1.1003 H   0  0  0  0  0  0
    1.9755    0.3736    0.6425 H   0  0  0  0  0  0
    3.0444   -3.7857   -0.4294 H   0  0  0  0  0  0
    4.7343   -3.4101   -0.6480 H   0  0  0  0  0  0
    4.9808   -3.0373    1.8305 H   0  0  0  0  0  0
    3.2840   -3.3839    2.0569 H   0  0  0  0  0  0
    3.6383   -5.7047    1.1650 H   0  0  0  0  0  0
    5.3348   -5.3605    0.9407 H   0  0  0  0  0  0
    4.9703   -6.6142    3.0576 H   0  0  0  0  0  0
    3.8859   -5.3591    3.6467 H   0  0  0  0  0  0
    5.6001   -5.0108    3.4212 H   0  0  0  0  0  0
  1  2  2  0  0  0
  1  6  1  0  0  0
  1 35  1  0  0  0
  2  3  1  0  0  0
  2 13  1  0  0  0
  3  4  2  0  0  0
  3 36  1  0  0  0
  4  5  1  0  0  0
  4 37  1  0  0  0
  5  6  2  0  0  0
  5  7  1  0  0  0
  6 38  1  0  0  0
  7 12  2  0  0  0
  7  8  1  0  0  0
  8  9  2  0  0  0
  8 39  1  0  0  0
  9 10  1  0  0  0
  9 40  1  0  0  0
 10 11  2  0  0  0
 10 17  1  0  0  0
 11 12  1  0  0  0
 11 41  1  0  0  0
 12 42  1  0  0  0
 13 14  1  0  0  0
 13 15  2  0  0  0
 13 16  2  0  0  0
 14 43  1  0  0  0
 14 44  1  0  0  0
 14 45  1  0  0  0
 17 18  1  0  0  0
 18 23  1  0  0  0
 18 19  1  0  0  0
 18 46  1  0  0  0
 19 20  1  0  0  0
 20 21  1  0  0  0
 20 27  1  0  0  0
 20 47  1  0  0  0
 21 22  1  0  0  0
 21 26  1  0  0  0
 21 48  1  0  0  0
 22 23  1  0  0  0
 22 25  1  0  0  0
 22 49  1  0  0  0
 23 24  1  0  0  0
 23 50  1  0  0  0
 24 51  1  0  0  0
 25 52  1  0  0  0
 26 53  1  0  0  0
 27 28  1  0  0  0
 27 54  1  0  0  0
 27 55  1  0  0  0
 28 29  1  0  0  0
 29 30  2  0  0  0
 29 31  1  0  0  0
 31 32  1  0  0  0
 31 56  1  0  0  0
 31 57  1  0  0  0
 32 33  1  0  0  0
 32 58  1  0  0  0
 32 59  1  0  0  0
 33 34  1  0  0  0
 33 60  1  0  0  0
 33 61  1  0  0  0
 34 62  1  0  0  0
 34 63  1  0  0  0
 34 64  1  0  0  0
M  END
> <s_m_entry_id>
62

> <s_m_entry_name>
entry

> <i_lp_mmshare_version>
47013

> <i_f3d_flags>
0

> <s_epik_input>
W0NIM11TKD1PKSg9TyljMVtjSF1bY0hdYyhbY0hdW2NIXTEpLWMyW2NIXVtjSF1jKFtjSF1bY0hdMilPW0NASF0zT1tDQEBIXShbQ0BASF0oW09IXSlbQ0BIXShbT0hdKVtDQEBIXTNbT0hdKVtDSDJdT0MoPU8pW0NIMl1bQ0gyXVtDSDJdW0NIM10=

> <s_epik_cmdline>
J2VwaWtfcHl0aG9uJywgJy1waCcsICc3LjQnLCAnLXRuJywgJzgnLCAnLW1hJywgJzIwMCcsICctaW1hZScsICc8aW5maWxlLm1hZT4nLCAnLW9tYWUnLCAnPG91dGZpbGUubWFlPic=

> <r_epik_Ionization_Penalty>
  0.0000

> <r_epik_Ionization_Penalty_Charging>
  0.0000

> <r_epik_Ionization_Penalty_Neutral>
  0.0000

> <r_epik_State_Penalty>
  0.0000

> <r_epik_Charging_Adjusted_Penalty>
0

> <i_epik_Tot_Q>
0

> <i_epik_Tot_abs_Q>
0

> <s_lp_Force_Field>
OPLS3e

> <r_lp_Energy>
30.883854

> <b_lp_Chiralities_Consistent>
1

> <s_lp_Variant>
81689779-1

> <s_m_job_name>
ligprep_16

> <s_m_Source_Path>
/home/andre/Documents/projects/Esterase/data/FINAL_STUFF/Compounds/MAE_external

> <s_m_Source_File>
62.mae

> <i_m_Source_File_Index>
1

> <r_lp_tautomer_probability>
1

> <s_epik_Chemistry_Notes>
This compound has an ester and may undergo hydrolysis at high or low pH. This compound contains an acetal/aminal-like group ( X-CH(R)-Y where X, Y are N, S, or O) that may be acid/base labile, releasing an aldehyde.

$$$$
