69
                    3D
 Schrodinger Suite 2021-1.
 42 43  0  0  1  0            999 V2000
   -0.2989   -0.2793    4.9063 C   0  0  0  0  0  0
   -0.7878   -0.9292    3.6182 C   0  0  0  0  0  0
   -1.5118   -1.9259    3.6376 O   0  0  0  0  0  0
   -0.3361   -0.2905    2.5213 O   0  0  0  0  0  0
   -0.6958   -0.7419    1.2197 C   0  0  0  0  0  0
   -0.0146    0.1068    0.1237 C   0  0  0  0  0  0
    1.5341    0.0484    0.1822 C   0  0  0  0  0  0
    2.1213   -1.3703    0.0250 C   0  0  0  0  0  0
    3.5774   -1.3299   -0.0213 N   0  0  0  0  0  0
    4.4439   -1.7167    0.9823 C   0  0  0  0  0  0
    5.7148   -1.5648    0.6967 N   0  0  0  0  0  0
    5.7033   -1.0413   -0.5673 C   0  0  0  0  0  0
    6.7319   -0.6505   -1.4368 C   0  0  0  0  0  0
    6.4420   -0.1469   -2.6666 N   0  0  0  0  0  0
    5.1291   -0.0426   -3.0071 C   0  0  0  0  0  0
    4.0506   -0.3885   -2.2509 N   0  0  0  0  0  0
    4.3826   -0.8786   -1.0485 C   0  0  0  0  0  0
    4.8570    0.4750   -4.2689 N   0  0  0  0  0  0
   -0.5431    1.5576    0.1536 C   0  0  0  0  0  0
   -0.0587    2.2946   -0.9637 O   0  0  0  0  0  0
   -0.3831    3.5922   -1.1240 C   0  0  0  0  0  0
   -1.0950    4.2653   -0.3773 O   0  0  0  0  0  0
    0.2403    4.1908   -2.3784 C   0  0  0  0  0  0
   -0.5669    0.7773    4.9246 H   0  0  0  0  0  0
    0.7848   -0.3656    4.9853 H   0  0  0  0  0  0
   -0.7469   -0.7620    5.7752 H   0  0  0  0  0  0
   -0.4261   -1.7924    1.1004 H   0  0  0  0  0  0
   -1.7798   -0.6908    1.1018 H   0  0  0  0  0  0
   -0.3231   -0.3222   -0.8311 H   0  0  0  0  0  0
    1.9402    0.6845   -0.6057 H   0  0  0  0  0  0
    1.8811    0.4830    1.1216 H   0  0  0  0  0  0
    1.8143   -2.0158    0.8490 H   0  0  0  0  0  0
    1.7647   -1.8420   -0.8918 H   0  0  0  0  0  0
    4.0481   -2.1044    1.9099 H   0  0  0  0  0  0
    7.7734   -0.7341   -1.1635 H   0  0  0  0  0  0
    3.8975    0.5750   -4.5658 H   0  0  0  0  0  0
    5.6236    0.7416   -4.8691 H   0  0  0  0  0  0
   -1.6342    1.5519    0.1249 H   0  0  0  0  0  0
   -0.2443    2.0480    1.0820 H   0  0  0  0  0  0
    1.3272    4.1951   -2.2947 H   0  0  0  0  0  0
   -0.0980    5.2168   -2.5254 H   0  0  0  0  0  0
   -0.0386    3.6076   -3.2561 H   0  0  0  0  0  0
  1  2  1  0  0  0
  1 24  1  0  0  0
  1 25  1  0  0  0
  1 26  1  0  0  0
  2  3  2  0  0  0
  2  4  1  0  0  0
  4  5  1  0  0  0
  5  6  1  0  0  0
  5 27  1  0  0  0
  5 28  1  0  0  0
  6  7  1  0  0  0
  6 19  1  0  0  0
  6 29  1  0  0  0
  7  8  1  0  0  0
  7 30  1  0  0  0
  7 31  1  0  0  0
  8  9  1  0  0  0
  8 32  1  0  0  0
  8 33  1  0  0  0
  9 17  1  0  0  0
  9 10  1  0  0  0
 10 11  2  0  0  0
 10 34  1  0  0  0
 11 12  1  0  0  0
 12 17  2  0  0  0
 12 13  1  0  0  0
 13 14  2  0  0  0
 13 35  1  0  0  0
 14 15  1  0  0  0
 15 16  2  0  0  0
 15 18  1  0  0  0
 16 17  1  0  0  0
 18 36  1  0  0  0
 18 37  1  0  0  0
 19 20  1  0  0  0
 19 38  1  0  0  0
 19 39  1  0  0  0
 20 21  1  0  0  0
 21 22  2  0  0  0
 21 23  1  0  0  0
 23 40  1  0  0  0
 23 41  1  0  0  0
 23 42  1  0  0  0
M  END
> <s_m_entry_id>
69

> <s_m_entry_name>
entry

> <i_lp_mmshare_version>
47013

> <i_f3d_flags>
0

> <s_epik_input>
W0NIM11DKD1PKU9bQ0gyXVtDSF0oW0NIMl1PQyg9TylbQ0gzXSlbQ0gyXVtDSDJdbihbY0hdbjEpYyhjMTIpbmMoW05IMl0pbltjSF0y

> <s_epik_cmdline>
J2VwaWtfcHl0aG9uJywgJy1waCcsICc3LjQnLCAnLXRuJywgJzgnLCAnLW1hJywgJzIwMCcsICctaW1hZScsICc8aW5maWxlLm1hZT4nLCAnLW9tYWUnLCAnPG91dGZpbGUubWFlPic=

> <r_epik_Ionization_Penalty>
  0.0005

> <r_epik_Ionization_Penalty_Charging>
  0.0000

> <r_epik_Ionization_Penalty_Neutral>
  0.0005

> <r_epik_State_Penalty>
  0.0002

> <r_epik_Charging_Adjusted_Penalty>
0.000212783205626657

> <i_epik_Tot_Q>
0

> <i_epik_Tot_abs_Q>
0

> <s_lp_Force_Field>
OPLS3e

> <r_lp_Energy>
7.863944

> <b_lp_Chiralities_Consistent>
1

> <s_lp_Variant>
3324-1

> <s_m_job_name>
ligprep_9

> <s_m_Source_Path>
/home/andre/Documents/projects/Esterase/data/FINAL_STUFF/Compounds/MAE_external

> <s_m_Source_File>
69.mae

> <i_m_Source_File_Index>
1

> <s_epik_Chemistry_Notes>
This compound has an ester and may undergo hydrolysis at high or low pH.

$$$$
