7
                    3D
 Schrodinger Suite 2021-1.
 62 64  0  0  1  0            999 V2000
   -2.1293    0.4494    0.3640 C   0  0  0  0  0  0
   -1.0554    1.1262    1.2429 C   0  0  2  0  0  0
   -1.3202    2.6393    1.4328 C   0  0  0  0  0  0
   -1.1140    3.4016    0.1854 N   0  0  0  0  0  0
   -2.0574    3.7441   -0.7136 C   0  0  0  0  0  0
   -1.5680    4.3630   -1.7610 N   0  0  0  0  0  0
   -0.2447    4.4250   -1.5302 C   0  0  0  0  0  0
    0.8216    4.9540   -2.2958 C   0  0  0  0  0  0
    2.0841    4.8654   -1.7928 N   0  0  0  0  0  0
    2.2422    4.2833   -0.5956 C   0  0  0  0  0  0
    1.3196    3.7481    0.2166 N   0  0  0  0  0  0
    0.0767    3.8453   -0.3150 C   0  0  0  0  0  0
    0.6398    5.5524   -3.5410 N   0  0  0  0  0  0
    0.2511    0.9901    0.6915 O   0  0  0  0  0  0
    0.8006   -0.3141    0.5838 C   0  0  0  0  0  0
    2.3704   -0.1128   -0.3609 P   0  0  1  0  0  0
    3.1492   -1.3473   -0.6555 O   0  0  0  0  0  0
    1.9269    0.8276   -1.7118 N   0  0  3  0  0  0
    2.5351    0.7070   -3.0408 C   0  0  1  0  0  0
    1.8264    1.6086   -4.0699 C   0  0  0  0  0  0
    4.0287    0.9773   -3.0624 C   0  0  0  0  0  0
    4.8201    0.2124   -3.6172 O   0  0  0  0  0  0
    4.3703    2.1331   -2.4281 O   0  0  0  0  0  0
    5.7272    2.5731   -2.3580 C   0  0  0  0  0  0
    5.8585    3.5384   -1.1719 C   0  0  0  0  0  0
    6.1561    3.2364   -3.6820 C   0  0  0  0  0  0
    3.1749    0.9795    0.5467 O   0  0  0  0  0  0
    3.5184    0.7973    1.8596 C   0  0  0  0  0  0
    3.0641    1.7175    2.8044 C   0  0  0  0  0  0
    3.4058    1.5625    4.1451 C   0  0  0  0  0  0
    4.2087    0.4912    4.5323 C   0  0  0  0  0  0
    4.6767   -0.4233    3.5906 C   0  0  0  0  0  0
    4.3338   -0.2683    2.2500 C   0  0  0  0  0  0
   -3.1336    0.6941    0.7108 H   0  0  0  0  0  0
   -2.0446   -0.6366    0.3879 H   0  0  0  0  0  0
   -2.0493    0.7656   -0.6764 H   0  0  0  0  0  0
   -1.0682    0.6594    2.2294 H   0  0  0  0  0  0
   -2.3422    2.8392    1.7585 H   0  0  0  0  0  0
   -0.6452    3.0800    2.1682 H   0  0  0  0  0  0
   -3.0960    3.4924   -0.5527 H   0  0  0  0  0  0
    3.2544    4.2383   -0.2255 H   0  0  0  0  0  0
   -0.2913    5.6236   -3.9249 H   0  0  0  0  0  0
    1.4419    5.9076   -4.0408 H   0  0  0  0  0  0
    0.9942   -0.7398    1.5686 H   0  0  0  0  0  0
    0.1493   -0.9929    0.0349 H   0  0  0  0  0  0
    1.4037    1.6892   -1.5518 H   0  0  0  0  0  0
    2.3726   -0.3237   -3.3586 H   0  0  0  0  0  0
    2.2191    1.4575   -5.0768 H   0  0  0  0  0  0
    1.9333    2.6670   -3.8280 H   0  0  0  0  0  0
    0.7582    1.3912   -4.1088 H   0  0  0  0  0  0
    6.3750    1.7171   -2.1586 H   0  0  0  0  0  0
    6.8958    3.8416   -1.0282 H   0  0  0  0  0  0
    5.5230    3.0713   -0.2450 H   0  0  0  0  0  0
    5.2703    4.4434   -1.3268 H   0  0  0  0  0  0
    7.1813    3.6030   -3.6230 H   0  0  0  0  0  0
    5.5134    4.0823   -3.9296 H   0  0  0  0  0  0
    6.1122    2.5332   -4.5138 H   0  0  0  0  0  0
    2.4419    2.5456    2.4989 H   0  0  0  0  0  0
    3.0509    2.2692    4.8806 H   0  0  0  0  0  0
    4.4735    0.3705    5.5725 H   0  0  0  0  0  0
    5.3033   -1.2475    3.8983 H   0  0  0  0  0  0
    4.7000   -0.9725    1.5179 H   0  0  0  0  0  0
  1  2  1  0  0  0
  1 34  1  0  0  0
  1 35  1  0  0  0
  1 36  1  0  0  0
  2  3  1  0  0  0
  2 14  1  0  0  0
  2 37  1  0  0  0
  3  4  1  0  0  0
  3 38  1  0  0  0
  3 39  1  0  0  0
  4  5  1  0  0  0
  4 12  1  0  0  0
  5  6  2  0  0  0
  5 40  1  0  0  0
  6  7  1  0  0  0
  7  8  2  0  0  0
  7 12  1  0  0  0
  8  9  1  0  0  0
  8 13  1  0  0  0
  9 10  2  0  0  0
 10 11  1  0  0  0
 10 41  1  0  0  0
 11 12  2  0  0  0
 13 42  1  0  0  0
 13 43  1  0  0  0
 14 15  1  0  0  0
 15 16  1  0  0  0
 15 44  1  0  0  0
 15 45  1  0  0  0
 16 17  2  0  0  0
 16 18  1  0  0  0
 16 27  1  0  0  0
 18 19  1  0  0  0
 18 46  1  0  0  0
 19 20  1  0  0  0
 19 21  1  0  0  0
 19 47  1  0  0  0
 20 48  1  0  0  0
 20 49  1  0  0  0
 20 50  1  0  0  0
 21 22  2  0  0  0
 21 23  1  0  0  0
 23 24  1  0  0  0
 24 25  1  0  0  0
 24 26  1  0  0  0
 24 51  1  0  0  0
 25 52  1  0  0  0
 25 53  1  0  0  0
 25 54  1  0  0  0
 26 55  1  0  0  0
 26 56  1  0  0  0
 26 57  1  0  0  0
 27 28  1  0  0  0
 28 29  2  0  0  0
 28 33  1  0  0  0
 29 30  1  0  0  0
 29 58  1  0  0  0
 30 31  2  0  0  0
 30 59  1  0  0  0
 31 32  1  0  0  0
 31 60  1  0  0  0
 32 33  2  0  0  0
 32 61  1  0  0  0
 33 62  1  0  0  0
M  END
> <s_m_entry_id>
7

> <s_m_entry_name>
9574768.1

> <i_lp_mmshare_version>
47013

> <i_f3d_flags>
0

> <s_epik_input>
W05IMl1jMW5bY0hdbmMoYzEyKW4oW2NIXW4yKVtDSDJdW0NAQEhdKFtDSDNdKU9bQ0gyXVtQQEBdKD1PKShbTkhdW0NAQEhdKFtDSDNdKUMoPU8pT1tDSF0oW0NIM10pW0NIM10pT2MzW2NIXVtjSF1bY0hdW2NIXVtjSF0z

> <s_epik_cmdline>
J2VwaWtfcHl0aG9uJywgJy1waCcsICc3LjAnLCAnLXRuJywgJzgnLCAnLW1hJywgJzIwMCcsICctaW1hZScsICc8aW5maWxlLm1hZT4nLCAnLW9tYWUnLCAnPG91dGZpbGUubWFlPic=

> <r_epik_Ionization_Penalty>
  0.0010

> <r_epik_Ionization_Penalty_Charging>
  0.0000

> <r_epik_Ionization_Penalty_Neutral>
  0.0010

> <r_epik_State_Penalty>
  0.0006

> <r_epik_Charging_Adjusted_Penalty>
0.000590386161533619

> <i_epik_Tot_Q>
0

> <i_epik_Tot_abs_Q>
0

> <s_lp_Force_Field>
OPLS3e

> <r_lp_Energy>
22.934599

> <b_lp_Chiralities_Consistent>
1

> <s_lp_Variant>
CE1_9574768_-1

> <s_m_job_name>
ligprep_31

> <s_m_Source_Path>
/home/andre/Documents/projects/Esterase/data/FINAL_STUFF/Compounds/MAE_external

> <s_m_Source_File>
7.mae

> <i_m_Source_File_Index>
1

> <r_lp_tautomer_probability>
0.999997216410988

> <s_epik_Chemistry_Notes>
This compound has an ester and may undergo hydrolysis at high or low pH.

$$$$
