70
                    3D
 Schrodinger Suite 2021-1.
 46 47  0  0  1  0            999 V2000
   -0.4433   -0.5625   -1.1178 O   0  0  0  0  0  0
    0.1212    0.1820   -0.0358 C   0  0  2  0  0  0
   -0.3791    1.6355   -0.1524 C   0  0  0  0  0  0
   -1.7978    1.6470   -0.0170 O   0  0  0  0  0  0
   -2.4924    2.8397   -0.1263 C   0  0  0  0  0  0
   -3.9155    2.7905   -0.0236 C   0  0  0  0  0  0
   -4.6166    1.5694    0.1801 C   0  0  0  0  0  0
   -6.0052    1.5531    0.2769 C   0  0  0  0  0  0
   -6.7340    2.7319    0.1765 C   0  0  0  0  0  0
   -6.0867    3.9471   -0.0247 C   0  0  0  0  0  0
   -4.6741    3.9995   -0.1285 C   0  0  0  0  0  0
   -3.9981    5.2245   -0.3341 C   0  0  0  0  0  0
   -2.6126    5.2530   -0.4311 C   0  0  0  0  0  0
   -1.8716    4.0823   -0.3288 C   0  0  0  0  0  0
    1.6637    0.0754   -0.0646 C   0  0  0  0  0  0
    2.2528    0.6789    1.2232 N   0  3  0  0  0  0
    3.7786    0.5433    1.3883 C   0  0  0  0  0  0
    4.1314    0.9307    2.8326 C   0  0  0  0  0  0
    4.5055    1.4120    0.3446 C   0  0  0  0  0  0
   -0.5717   -1.9086   -1.0691 C   0  0  0  0  0  0
   -1.2068   -2.4741   -2.3328 C   0  0  0  0  0  0
   -0.2313   -2.6402   -0.1383 O   0  0  0  0  0  0
   -0.2460   -0.2242    0.9094 H   0  0  0  0  0  0
    0.0627    2.2482    0.6353 H   0  0  0  0  0  0
   -0.0814    2.0573   -1.1147 H   0  0  0  0  0  0
   -4.0685    0.6417    0.2605 H   0  0  0  0  0  0
   -6.5207    0.6165    0.4312 H   0  0  0  0  0  0
   -7.8111    2.7042    0.2547 H   0  0  0  0  0  0
   -6.6618    4.8586   -0.1027 H   0  0  0  0  0  0
   -4.5649    6.1410   -0.4153 H   0  0  0  0  0  0
   -2.1068    6.1946   -0.5870 H   0  0  0  0  0  0
   -0.7986    4.1630   -0.4095 H   0  0  0  0  0  0
    2.0110   -0.9588   -0.0679 H   0  0  0  0  0  0
    2.1023    0.6181   -0.9021 H   0  0  0  0  0  0
    2.0047    1.6567    1.2771 H   0  0  0  0  0  0
    3.9805   -0.5176    1.2291 H   0  0  0  0  0  0
    5.1996    0.8118    3.0179 H   0  0  0  0  0  0
    3.6066    0.3032    3.5543 H   0  0  0  0  0  0
    3.8750    1.9694    3.0457 H   0  0  0  0  0  0
    5.5857    1.3642    0.4868 H   0  0  0  0  0  0
    4.2115    2.4600    0.4178 H   0  0  0  0  0  0
    4.3086    1.0792   -0.6743 H   0  0  0  0  0  0
   -2.1984   -2.0462   -2.4827 H   0  0  0  0  0  0
   -1.3066   -3.5575   -2.2622 H   0  0  0  0  0  0
   -0.5922   -2.2416   -3.2029 H   0  0  0  0  0  0
    1.8170    0.2099    2.0050 H   0  0  0  0  0  0
  1  2  1  0  0  0
  1 20  1  0  0  0
  2  3  1  0  0  0
  2 15  1  0  0  0
  2 23  1  0  0  0
  3  4  1  0  0  0
  3 24  1  0  0  0
  3 25  1  0  0  0
  4  5  1  0  0  0
  5 14  2  0  0  0
  5  6  1  0  0  0
  6 11  2  0  0  0
  6  7  1  0  0  0
  7  8  2  0  0  0
  7 26  1  0  0  0
  8  9  1  0  0  0
  8 27  1  0  0  0
  9 10  2  0  0  0
  9 28  1  0  0  0
 10 11  1  0  0  0
 10 29  1  0  0  0
 11 12  1  0  0  0
 12 13  2  0  0  0
 12 30  1  0  0  0
 13 14  1  0  0  0
 13 31  1  0  0  0
 14 32  1  0  0  0
 15 16  1  0  0  0
 15 33  1  0  0  0
 15 34  1  0  0  0
 16 17  1  0  0  0
 16 35  1  0  0  0
 16 46  1  0  0  0
 17 18  1  0  0  0
 17 19  1  0  0  0
 17 36  1  0  0  0
 18 37  1  0  0  0
 18 38  1  0  0  0
 18 39  1  0  0  0
 19 40  1  0  0  0
 19 41  1  0  0  0
 19 42  1  0  0  0
 20 21  1  0  0  0
 20 22  2  0  0  0
 21 43  1  0  0  0
 21 44  1  0  0  0
 21 45  1  0  0  0
M  CHG  1  16   1
M  END
> <s_m_entry_id>
70

> <s_m_entry_name>
entry

> <i_lp_mmshare_version>
47013

> <i_f3d_flags>
0

> <s_epik_input>
W0NIM11bQ0hdKFtDSDNdKVtOSF1bQ0gyXVtDQEhdKE9DKD1PKVtDSDNdKVtDSDJdT2MxW2NIXVtjSF1bY0hdYyhjMTIpW2NIXVtjSF1bY0hdW2NIXTI=

> <s_epik_cmdline>
J2VwaWtfcHl0aG9uJywgJy1waCcsICc3LjQnLCAnLXRuJywgJzgnLCAnLW1hJywgJzIwMCcsICctaW1hZScsICc8aW5maWxlLm1hZT4nLCAnLW9tYWUnLCAnPG91dGZpbGUubWFlPic=

> <r_epik_Ionization_Penalty>
  0.0221

> <r_epik_Ionization_Penalty_Charging>
  0.0221

> <r_epik_Ionization_Penalty_Neutral>
  0.0000

> <r_epik_State_Penalty>
  0.0178

> <r_epik_Charging_Adjusted_Penalty>
0.0398806179301065

> <i_epik_Tot_Q>
1

> <i_epik_Tot_abs_Q>
1

> <s_lp_Force_Field>
OPLS3e

> <r_lp_Energy>
25.996178

> <b_lp_Chiralities_Consistent>
1

> <s_lp_Variant>
10902695_S-1

> <s_m_job_name>
ligprep_11

> <s_m_Source_Path>
/home/andre/Documents/projects/Esterase/data/FINAL_STUFF/Compounds/MAE_external

> <s_m_Source_File>
70.mae

> <i_m_Source_File_Index>
1

> <s_epik_Chemistry_Notes>
This compound has an ester and may undergo hydrolysis at high or low pH.

$$$$
