74
                    3D
 Schrodinger Suite 2021-1.
 58 59  0  0  1  0            999 V2000
    0.3835    0.0854   -0.0603 O   0  0  0  0  0  0
    1.8054   -0.0742   -0.1030 C   0  0  1  0  0  0
    2.1172   -1.5671    0.1184 C   0  0  0  0  0  0
    1.6822   -1.9414    1.4228 O   0  0  0  0  0  0
    1.8224   -3.2517    1.8473 C   0  0  0  0  0  0
    1.3398   -3.5828    3.1494 C   0  0  0  0  0  0
    0.7333   -2.6160    3.9989 C   0  0  0  0  0  0
    0.2713   -2.9691    5.2636 C   0  0  0  0  0  0
    0.3943   -4.2754    5.7213 C   0  0  0  0  0  0
    0.9812   -5.2510    4.9215 C   0  0  0  0  0  0
    1.4622   -4.9257    3.6283 C   0  0  0  0  0  0
    2.0617   -5.9033    2.8008 C   0  0  0  0  0  0
    2.5274   -5.5622    1.5375 C   0  0  0  0  0  0
    2.4107   -4.2600    1.0677 C   0  0  0  0  0  0
    2.4058    0.4659   -1.4256 C   0  0  0  0  0  0
    1.6907   -0.1574   -2.6402 N   0  3  0  0  0  0
    2.0706    0.4246   -4.0147 C   0  0  0  0  0  0
    1.0679   -0.1155   -5.0458 C   0  0  0  0  0  0
    3.5291    0.0703   -4.3584 C   0  0  0  0  0  0
   -0.1970    1.2877    0.1585 C   0  0  0  0  0  0
   -1.7270    1.1862    0.1490 C   0  0  0  0  0  0
    0.3973    2.3537    0.3350 O   0  0  0  0  0  0
   -2.4637    2.5407    0.2446 C   0  0  0  0  0  0
   -3.9975    2.4201    0.1644 C   0  0  0  0  0  0
   -4.6356    1.6653    1.3463 C   0  0  0  0  0  0
   -6.1689    1.6464    1.2830 C   0  0  0  0  0  0
    2.2558    0.4769    0.7254 H   0  0  0  0  0  0
    1.6182   -2.1749   -0.6391 H   0  0  0  0  0  0
    3.1922   -1.7358    0.0321 H   0  0  0  0  0  0
    0.6279   -1.5949    3.6618 H   0  0  0  0  0  0
   -0.1865   -2.2216    5.8948 H   0  0  0  0  0  0
    0.0313   -4.5348    6.7051 H   0  0  0  0  0  0
    1.0728   -6.2642    5.2855 H   0  0  0  0  0  0
    2.1564   -6.9194    3.1563 H   0  0  0  0  0  0
    2.9848   -6.3168    0.9142 H   0  0  0  0  0  0
    2.7909   -4.0508    0.0797 H   0  0  0  0  0  0
    2.2673    1.5428   -1.5296 H   0  0  0  0  0  0
    3.4635    0.2232   -1.5289 H   0  0  0  0  0  0
    1.8529   -1.1544   -2.6482 H   0  0  0  0  0  0
    1.9416    1.5027   -3.9019 H   0  0  0  0  0  0
    1.2594    0.3050   -6.0337 H   0  0  0  0  0  0
    0.0422    0.1425   -4.7783 H   0  0  0  0  0  0
    1.1259   -1.2015   -5.1342 H   0  0  0  0  0  0
    3.7938    0.4405   -5.3495 H   0  0  0  0  0  0
    3.6921   -1.0084   -4.3581 H   0  0  0  0  0  0
    4.2348    0.5168   -3.6579 H   0  0  0  0  0  0
   -2.0313    0.6728   -0.7637 H   0  0  0  0  0  0
   -2.0245    0.5460    0.9795 H   0  0  0  0  0  0
   -2.1902    3.0506    1.1702 H   0  0  0  0  0  0
   -2.1287    3.1918   -0.5648 H   0  0  0  0  0  0
   -4.4198    3.4251    0.1166 H   0  0  0  0  0  0
   -4.2754    1.9355   -0.7730 H   0  0  0  0  0  0
   -4.2727    0.6375    1.3721 H   0  0  0  0  0  0
   -4.3237    2.1234    2.2861 H   0  0  0  0  0  0
   -6.5863    1.0996    2.1289 H   0  0  0  0  0  0
   -6.5219    1.1640    0.3709 H   0  0  0  0  0  0
   -6.5787    2.6567    1.3086 H   0  0  0  0  0  0
    0.6991   -0.0117   -2.5110 H   0  0  0  0  0  0
  1  2  1  0  0  0
  1 20  1  0  0  0
  2  3  1  0  0  0
  2 15  1  0  0  0
  2 27  1  0  0  0
  3  4  1  0  0  0
  3 28  1  0  0  0
  3 29  1  0  0  0
  4  5  1  0  0  0
  5  6  2  0  0  0
  5 14  1  0  0  0
  6  7  1  0  0  0
  6 11  1  0  0  0
  7  8  2  0  0  0
  7 30  1  0  0  0
  8  9  1  0  0  0
  8 31  1  0  0  0
  9 10  2  0  0  0
  9 32  1  0  0  0
 10 11  1  0  0  0
 10 33  1  0  0  0
 11 12  2  0  0  0
 12 13  1  0  0  0
 12 34  1  0  0  0
 13 14  2  0  0  0
 13 35  1  0  0  0
 14 36  1  0  0  0
 15 16  1  0  0  0
 15 37  1  0  0  0
 15 38  1  0  0  0
 16 17  1  0  0  0
 16 39  1  0  0  0
 16 58  1  0  0  0
 17 18  1  0  0  0
 17 19  1  0  0  0
 17 40  1  0  0  0
 18 41  1  0  0  0
 18 42  1  0  0  0
 18 43  1  0  0  0
 19 44  1  0  0  0
 19 45  1  0  0  0
 19 46  1  0  0  0
 20 21  1  0  0  0
 20 22  2  0  0  0
 21 23  1  0  0  0
 21 47  1  0  0  0
 21 48  1  0  0  0
 23 24  1  0  0  0
 23 49  1  0  0  0
 23 50  1  0  0  0
 24 25  1  0  0  0
 24 51  1  0  0  0
 24 52  1  0  0  0
 25 26  1  0  0  0
 25 53  1  0  0  0
 25 54  1  0  0  0
 26 55  1  0  0  0
 26 56  1  0  0  0
 26 57  1  0  0  0
M  CHG  1  16   1
M  END
> <s_m_entry_id>
74

> <s_m_entry_name>
entry

> <i_lp_mmshare_version>
47013

> <i_f3d_flags>
0

> <s_epik_input>
W0NIM11bQ0gyXVtDSDJdW0NIMl1bQ0gyXUMoPU8pT1tDQEhdKFtDSDJdW05IXVtDSF0oW0NIM10pW0NIM10pW0NIMl1PYzFbY0hdW2NIXVtjSF1jKGMxMilbY0hdW2NIXVtjSF1bY0hdMg==

> <s_epik_cmdline>
J2VwaWtfcHl0aG9uJywgJy1waCcsICc3LjQnLCAnLXRuJywgJzgnLCAnLW1hJywgJzIwMCcsICctaW1hZScsICc8aW5maWxlLm1hZT4nLCAnLW9tYWUnLCAnPG91dGZpbGUubWFlPic=

> <r_epik_Ionization_Penalty>
  0.0218

> <r_epik_Ionization_Penalty_Charging>
  0.0218

> <r_epik_Ionization_Penalty_Neutral>
  0.0000

> <r_epik_State_Penalty>
  0.0176

> <r_epik_Charging_Adjusted_Penalty>
0.0393618896294998

> <i_epik_Tot_Q>
1

> <i_epik_Tot_abs_Q>
1

> <s_lp_Force_Field>
OPLS3e

> <r_lp_Energy>
27.779996

> <b_lp_Chiralities_Consistent>
1

> <s_lp_Variant>
102094116_r-1

> <s_m_job_name>
ligprep_17

> <s_m_Source_Path>
/home/andre/Documents/projects/Esterase/data/FINAL_STUFF/Compounds/MAE_external

> <s_m_Source_File>
74.mae

> <i_m_Source_File_Index>
1

> <s_epik_Chemistry_Notes>
This compound has an ester and may undergo hydrolysis at high or low pH.

$$$$
