8
                    3D
 Schrodinger Suite 2021-1.
 51 51  0  0  1  0            999 V2000
   -2.0467   -0.2119    1.7039 C   0  0  0  0  0  0
   -2.0952    0.7986    0.5468 C   0  0  0  0  0  0
   -0.7017    1.2795    0.0869 C   0  0  0  0  0  0
   -0.7612    2.3108   -1.0655 C   0  0  0  0  0  0
   -1.3772    3.6633   -0.6740 C   0  0  0  0  0  0
    0.0170    0.1280   -0.3584 O   0  0  0  0  0  0
    1.4422    0.1676   -0.2757 C   0  0  2  0  0  0
    2.0059   -0.5008   -1.5269 C   0  0  0  0  0  0
    2.9490   -1.4718   -1.5328 C   0  0  0  0  0  0
    3.5065   -2.0652   -0.2356 C   0  0  0  0  0  0
    3.3957   -1.0284    0.9029 C   0  0  1  0  0  0
    1.9465   -0.4807    1.0535 C   0  0  1  0  0  0
    1.7598    0.4303    2.1931 N   0  0  0  0  0  0
    1.3633    0.0878    3.4318 C   0  0  0  0  0  0
    1.1098   -1.0663    3.7752 O   0  0  0  0  0  0
    1.2290    1.2229    4.4410 C   0  0  0  0  0  0
    3.7919   -1.7697    2.1890 N   0  3  0  0  0  0
    3.4408   -2.0073   -2.8220 C   0  0  0  0  0  0
    3.1883   -1.4803   -3.9100 O   0  0  0  0  0  0
    4.1907   -3.1362   -2.6939 O   0  0  0  0  0  0
    4.7582   -3.7991   -3.8221 C   0  0  0  0  0  0
    6.0489   -3.1150   -4.3000 C   0  0  0  0  0  0
   -3.0518   -0.5200    1.9931 H   0  0  0  0  0  0
   -1.5690    0.2192    2.5839 H   0  0  0  0  0  0
   -1.4936   -1.1108    1.4295 H   0  0  0  0  0  0
   -2.6275    0.3540   -0.2955 H   0  0  0  0  0  0
   -2.6941    1.6509    0.8679 H   0  0  0  0  0  0
   -0.2032    1.7310    0.9465 H   0  0  0  0  0  0
    0.2446    2.4993   -1.4411 H   0  0  0  0  0  0
   -1.3143    1.8906   -1.9067 H   0  0  0  0  0  0
   -1.3191    4.3688   -1.5033 H   0  0  0  0  0  0
   -0.8526    4.1071    0.1727 H   0  0  0  0  0  0
   -2.4290    3.5669   -0.4053 H   0  0  0  0  0  0
    1.7793    1.2052   -0.3290 H   0  0  0  0  0  0
    1.6282   -0.1299   -2.4705 H   0  0  0  0  0  0
    2.9129   -2.9485    0.0089 H   0  0  0  0  0  0
    4.5418   -2.3966   -0.3395 H   0  0  0  0  0  0
    4.1192   -0.2200    0.7820 H   0  0  0  0  0  0
    1.2956   -1.3439    1.2212 H   0  0  0  0  0  0
    1.9836    1.3999    2.0204 H   0  0  0  0  0  0
    1.4708    2.1888    3.9960 H   0  0  0  0  0  0
    1.8987    1.0575    5.2852 H   0  0  0  0  0  0
    0.2071    1.2684    4.8188 H   0  0  0  0  0  0
    3.1633   -2.5438    2.3513 H   0  0  0  0  0  0
    3.7397   -1.1431    2.9798 H   0  0  0  0  0  0
    4.9868   -4.8227   -3.5250 H   0  0  0  0  0  0
    4.0329   -3.8692   -4.6347 H   0  0  0  0  0  0
    6.4920   -3.6651   -5.1301 H   0  0  0  0  0  0
    6.7887   -3.0683   -3.5004 H   0  0  0  0  0  0
    5.8599   -2.0976   -4.6428 H   0  0  0  0  0  0
    4.7347   -2.1243    2.1142 H   0  0  0  0  0  0
  1  2  1  0  0  0
  1 23  1  0  0  0
  1 24  1  0  0  0
  1 25  1  0  0  0
  2  3  1  0  0  0
  2 26  1  0  0  0
  2 27  1  0  0  0
  3  4  1  0  0  0
  3  6  1  0  0  0
  3 28  1  0  0  0
  4  5  1  0  0  0
  4 29  1  0  0  0
  4 30  1  0  0  0
  5 31  1  0  0  0
  5 32  1  0  0  0
  5 33  1  0  0  0
  6  7  1  0  0  0
  7  8  1  0  0  0
  7 12  1  0  0  0
  7 34  1  0  0  0
  8  9  2  0  0  0
  8 35  1  0  0  0
  9 10  1  0  0  0
  9 18  1  0  0  0
 10 11  1  0  0  0
 10 36  1  0  0  0
 10 37  1  0  0  0
 11 12  1  0  0  0
 11 17  1  0  0  0
 11 38  1  0  0  0
 12 13  1  0  0  0
 12 39  1  0  0  0
 13 14  1  0  0  0
 13 40  1  0  0  0
 14 15  2  0  0  0
 14 16  1  0  0  0
 16 41  1  0  0  0
 16 42  1  0  0  0
 16 43  1  0  0  0
 17 44  1  0  0  0
 17 45  1  0  0  0
 17 51  1  0  0  0
 18 19  2  0  0  0
 18 20  1  0  0  0
 20 21  1  0  0  0
 21 22  1  0  0  0
 21 46  1  0  0  0
 21 47  1  0  0  0
 22 48  1  0  0  0
 22 49  1  0  0  0
 22 50  1  0  0  0
M  CHG  1  17   1
M  END
> <s_m_entry_id>
8

> <s_m_entry_name>
CE1_65028.1

> <i_lp_mmshare_version>
47013

> <i_f3d_flags>
0

> <s_epik_input>
W0NIM11bQ0gyXVtDSF0oW0NIMl1bQ0gzXSlPW0NAQEhdMVtDSF09QyhDKD1PKU9bQ0gyXVtDSDNdKVtDSDJdW0NASF0oW05IMl0pW0NASF0xW05IXUMoPU8pW0NIM10=

> <s_epik_cmdline>
J2VwaWtfcHl0aG9uJywgJy1waCcsICc3LjAnLCAnLXRuJywgJzgnLCAnLW1hJywgJzIwMCcsICctaW1hZScsICc8aW5maWxlLm1hZT4nLCAnLW9tYWUnLCAnPG91dGZpbGUubWFlPic=

> <r_epik_Ionization_Penalty>
  0.0916

> <r_epik_Ionization_Penalty_Charging>
  0.0916

> <r_epik_Ionization_Penalty_Neutral>
  0.0000

> <r_epik_State_Penalty>
  0.0820

> <r_epik_Charging_Adjusted_Penalty>
0.173575416647317

> <i_epik_Tot_Q>
1

> <i_epik_Tot_abs_Q>
1

> <s_lp_Force_Field>
OPLS3e

> <r_lp_Energy>
15.663341

> <b_lp_Chiralities_Consistent>
1

> <s_lp_Variant>
CE1_65028_-1

> <s_m_job_name>
ligprep_33

> <s_m_Source_Path>
/home/andre/Documents/projects/Esterase/data/FINAL_STUFF/Compounds/MAE_external

> <s_m_Source_File>
8.mae

> <i_m_Source_File_Index>
1

> <s_epik_Chemistry_Notes>
This compound has an ester and may undergo hydrolysis at high or low pH.

$$$$
