80
                    3D
 Schrodinger Suite 2021-1.
 83 86  0  0  1  0            999 V2000
    2.3175   -3.5443   -6.4822 C   0  0  0  0  0  0
    1.1070   -4.3886   -6.0724 C   0  0  0  0  0  0
    0.0081   -3.5326   -5.7906 O   0  0  0  0  0  0
   -1.1878   -4.0426   -5.4026 C   0  0  0  0  0  0
   -1.4316   -5.2455   -5.2697 O   0  0  0  0  0  0
   -2.2604   -2.9430   -5.1388 C   0  0  0  0  0  0
   -2.4217   -2.0874   -6.4301 C   0  0  0  0  0  0
   -3.6498   -3.5769   -4.8428 C   0  0  0  0  0  0
   -1.7958   -2.1300   -3.8972 C   0  0  0  0  0  0
   -1.5576   -0.7482   -3.9643 C   0  0  0  0  0  0
   -1.1503   -0.0387   -2.8382 C   0  0  0  0  0  0
   -0.9850   -0.6921   -1.6135 C   0  0  0  0  0  0
   -1.2207   -2.0653   -1.5333 C   0  0  0  0  0  0
   -1.6247   -2.7739   -2.6604 C   0  0  0  0  0  0
   -0.5208    0.0618   -0.3657 C   0  0  1  0  0  0
    1.0183    0.0216   -0.2236 C   0  0  0  0  0  0
    1.5534    0.6327    1.0868 C   0  0  0  0  0  0
    3.0814    0.4935    1.2166 C   0  0  0  0  0  0
    3.6258    1.3080    2.4150 N   0  3  1  0  0  0
    3.1409    0.7447    3.7742 C   0  0  0  0  0  0
    3.7264    1.6148    4.8999 C   0  0  0  0  0  0
    5.2798    1.6067    4.8843 C   0  0  1  0  0  0
    5.6963    2.2099    3.5133 C   0  0  0  0  0  0
    5.1710    1.3672    2.3375 C   0  0  0  0  0  0
    5.9691    2.3029    6.1329 C   0  0  0  0  0  0
    5.6087    3.8176    6.1428 C   0  0  0  0  0  0
    6.4822    4.7796    5.6077 C   0  0  0  0  0  0
    6.1413    6.1292    5.6090 C   0  0  0  0  0  0
    4.9217    6.5329    6.1433 C   0  0  0  0  0  0
    4.0401    5.5977    6.6758 C   0  0  0  0  0  0
    4.3825    4.2489    6.6738 C   0  0  0  0  0  0
    5.6544    1.6238    7.4966 C   0  0  0  0  0  0
    5.9634    2.3024    8.6879 C   0  0  0  0  0  0
    5.7279    1.7178    9.9287 C   0  0  0  0  0  0
    5.1954    0.4349    9.9952 C   0  0  0  0  0  0
    4.9078   -0.2692    8.8307 C   0  0  0  0  0  0
    5.1447    0.3172    7.5904 C   0  0  0  0  0  0
    7.3608    2.1039    5.9191 O   0  0  0  0  0  0
   -0.9683    1.4064   -0.3284 O   0  0  0  0  0  0
    3.1729   -4.1804   -6.7096 H   0  0  0  0  0  0
    2.6125   -2.8635   -5.6832 H   0  0  0  0  0  0
    2.1014   -2.9482   -7.3692 H   0  0  0  0  0  0
    0.8461   -5.0790   -6.8760 H   0  0  0  0  0  0
    1.3502   -4.9838   -5.1911 H   0  0  0  0  0  0
   -1.4993   -1.5793   -6.7164 H   0  0  0  0  0  0
   -3.1882   -1.3207   -6.3077 H   0  0  0  0  0  0
   -2.7243   -2.6978   -7.2829 H   0  0  0  0  0  0
   -3.6303   -4.2561   -3.9891 H   0  0  0  0  0  0
   -4.0247   -4.1480   -5.6941 H   0  0  0  0  0  0
   -4.3935   -2.8101   -4.6203 H   0  0  0  0  0  0
   -1.6758   -0.1980   -4.8846 H   0  0  0  0  0  0
   -0.9623    1.0217   -2.9254 H   0  0  0  0  0  0
   -1.0895   -2.5885   -0.5971 H   0  0  0  0  0  0
   -1.8002   -3.8359   -2.5687 H   0  0  0  0  0  0
   -0.9662   -0.4216    0.5059 H   0  0  0  0  0  0
    1.3502   -1.0167   -0.2818 H   0  0  0  0  0  0
    1.4755    0.5297   -1.0750 H   0  0  0  0  0  0
    1.2788    1.6868    1.1461 H   0  0  0  0  0  0
    1.0629    0.1353    1.9235 H   0  0  0  0  0  0
    3.4085   -0.5384    1.3551 H   0  0  0  0  0  0
    3.5737    0.9153    0.3387 H   0  0  0  0  0  0
    2.0546    0.8230    3.7873 H   0  0  0  0  0  0
    3.4474   -0.3010    3.8340 H   0  0  0  0  0  0
    3.3332    2.6298    4.8462 H   0  0  0  0  0  0
    3.3502    1.2354    5.8484 H   0  0  0  0  0  0
    5.6049    0.5647    4.8637 H   0  0  0  0  0  0
    5.3858    3.2521    3.4265 H   0  0  0  0  0  0
    6.7832    2.2441    3.4347 H   0  0  0  0  0  0
    5.5456    0.3419    2.3470 H   0  0  0  0  0  0
    5.4186    1.8499    1.3910 H   0  0  0  0  0  0
    7.4304    4.4927    5.1777 H   0  0  0  0  0  0
    6.8202    6.8600    5.1946 H   0  0  0  0  0  0
    4.6574    7.5802    6.1444 H   0  0  0  0  0  0
    3.0947    5.9170    7.0892 H   0  0  0  0  0  0
    3.6873    3.5359    7.0925 H   0  0  0  0  0  0
    6.3915    3.2938    8.6589 H   0  0  0  0  0  0
    5.9626    2.2556   10.8354 H   0  0  0  0  0  0
    5.0142   -0.0214   10.9574 H   0  0  0  0  0  0
    4.5079   -1.2708    8.8894 H   0  0  0  0  0  0
    4.9251   -0.2717    6.7145 H   0  0  0  0  0  0
    7.8364    2.4772    6.6649 H   0  0  0  0  0  0
   -1.9279    1.4061   -0.2927 H   0  0  0  0  0  0
    3.2865    2.2563    2.3333 H   0  0  0  0  0  0
  1  2  1  0  0  0
  1 40  1  0  0  0
  1 41  1  0  0  0
  1 42  1  0  0  0
  2  3  1  0  0  0
  2 43  1  0  0  0
  2 44  1  0  0  0
  3  4  1  0  0  0
  4  5  2  0  0  0
  4  6  1  0  0  0
  6  7  1  0  0  0
  6  8  1  0  0  0
  6  9  1  0  0  0
  7 45  1  0  0  0
  7 46  1  0  0  0
  7 47  1  0  0  0
  8 48  1  0  0  0
  8 49  1  0  0  0
  8 50  1  0  0  0
  9 14  2  0  0  0
  9 10  1  0  0  0
 10 11  2  0  0  0
 10 51  1  0  0  0
 11 12  1  0  0  0
 11 52  1  0  0  0
 12 13  2  0  0  0
 12 15  1  0  0  0
 13 14  1  0  0  0
 13 53  1  0  0  0
 14 54  1  0  0  0
 15 16  1  0  0  0
 15 39  1  0  0  0
 15 55  1  0  0  0
 16 17  1  0  0  0
 16 56  1  0  0  0
 16 57  1  0  0  0
 17 18  1  0  0  0
 17 58  1  0  0  0
 17 59  1  0  0  0
 18 19  1  0  0  0
 18 60  1  0  0  0
 18 61  1  0  0  0
 19 24  1  0  0  0
 19 20  1  0  0  0
 19 83  1  0  0  0
 20 21  1  0  0  0
 20 62  1  0  0  0
 20 63  1  0  0  0
 21 22  1  0  0  0
 21 64  1  0  0  0
 21 65  1  0  0  0
 22 23  1  0  0  0
 22 25  1  0  0  0
 22 66  1  0  0  0
 23 24  1  0  0  0
 23 67  1  0  0  0
 23 68  1  0  0  0
 24 69  1  0  0  0
 24 70  1  0  0  0
 25 26  1  0  0  0
 25 32  1  0  0  0
 25 38  1  0  0  0
 26 31  1  0  0  0
 26 27  2  0  0  0
 27 28  1  0  0  0
 27 71  1  0  0  0
 28 29  2  0  0  0
 28 72  1  0  0  0
 29 30  1  0  0  0
 29 73  1  0  0  0
 30 31  2  0  0  0
 30 74  1  0  0  0
 31 75  1  0  0  0
 32 37  1  0  0  0
 32 33  2  0  0  0
 33 34  1  0  0  0
 33 76  1  0  0  0
 34 35  2  0  0  0
 34 77  1  0  0  0
 35 36  1  0  0  0
 35 78  1  0  0  0
 36 37  2  0  0  0
 36 79  1  0  0  0
 37 80  1  0  0  0
 38 81  1  0  0  0
 39 82  1  0  0  0
M  CHG  1  19   1
M  END
> <s_m_entry_id>
80

> <s_m_entry_name>
entry

> <i_lp_mmshare_version>
47013

> <i_f3d_flags>
0

> <s_epik_input>
W0NIM11bQ0gyXU9DKD1PKUMoW0NIM10pKFtDSDNdKWMxW2NIXVtjSF1jKFtjSF1bY0hdMSlbQ0BIXShbT0hdKVtDSDJdW0NIMl1bQ0gyXU4yW0NIMl1bQ0gyXVtDSF0oW0NIMl1bQ0gyXTIpQyhbT0hdKShjM1tjSF1bY0hdW2NIXVtjSF1bY0hdMyljNFtjSF1bY0hdW2NIXVtjSF1bY0hdNA==

> <s_epik_cmdline>
J2VwaWtfcHl0aG9uJywgJy1waCcsICc3LjQnLCAnLXRuJywgJzgnLCAnLW1hJywgJzIwMCcsICctaW1hZScsICc8aW5maWxlLm1hZT4nLCAnLW9tYWUnLCAnPG91dGZpbGUubWFlPic=

> <r_epik_Ionization_Penalty>
  0.0085

> <r_epik_Ionization_Penalty_Charging>
  0.0085

> <r_epik_Ionization_Penalty_Neutral>
  0.0000

> <r_epik_State_Penalty>
  0.0064

> <r_epik_Charging_Adjusted_Penalty>
0.0149335908552368

> <i_epik_Tot_Q>
1

> <i_epik_Tot_abs_Q>
1

> <s_lp_Force_Field>
OPLS3e

> <r_lp_Energy>
64.933179

> <b_lp_Chiralities_Consistent>
1

> <s_lp_Variant>
9849889-1

> <s_m_job_name>
ligprep_29

> <s_m_Source_Path>
/home/andre/Documents/projects/Esterase/data/FINAL_STUFF/Compounds/MAE_external

> <s_m_Source_File>
80.mae

> <i_m_Source_File_Index>
1

> <s_epik_Chemistry_Notes>
This compound has an ester and may undergo hydrolysis at high or low pH.

$$$$
