86
                    3D
 Schrodinger Suite 2021-1.
 64 66  0  0  1  0            999 V2000
   -2.6959    3.4819    3.7960 C   0  0  0  0  0  0
   -2.5000    2.8844    2.5535 C   0  0  0  0  0  0
   -3.0110    3.4805    1.3895 C   0  0  0  0  0  0
   -3.7151    4.6892    1.4985 C   0  0  0  0  0  0
   -3.9096    5.2850    2.7417 C   0  0  0  0  0  0
   -3.4000    4.6791    3.8862 C   0  0  0  0  0  0
   -2.8131    2.8696    0.0326 C   0  0  0  0  0  0
   -2.1700    1.4778   -0.0677 C   0  0  0  0  0  0
   -3.1772    3.4100   -1.0127 O   0  0  0  0  0  0
   -0.6321    1.5342   -0.1207 C   0  0  0  0  0  0
   -0.0148    0.1259   -0.2557 C   0  0  0  0  0  0
    1.5333    0.1052   -0.1767 N   0  3  1  0  0  0
    2.1974    0.9693   -1.2721 C   0  0  0  0  0  0
    3.7281    0.7938   -1.1902 C   0  0  0  0  0  0
    4.3270    1.1413    0.2032 C   0  0  1  0  0  0
    3.5760    0.2613    1.2565 C   0  0  0  0  0  0
    2.0491    0.4563    1.2366 C   0  0  0  0  0  0
    5.8613    0.9084    0.1608 C   0  0  0  0  0  0
    4.0193    2.5353    0.4195 O   0  0  0  0  0  0
    4.4099    3.2549    1.5094 C   0  0  0  0  0  0
    3.9762    4.7199    1.4244 C   0  0  0  0  0  0
    5.0476    2.8323    2.4740 O   0  0  0  0  0  0
    6.6496    1.7390   -0.6496 C   0  0  0  0  0  0
    8.0298    1.5740   -0.7103 C   0  0  0  0  0  0
    8.6377    0.5715    0.0396 C   0  0  0  0  0  0
    7.8730   -0.2644    0.8489 C   0  0  0  0  0  0
    6.4921   -0.0972    0.9104 C   0  0  0  0  0  0
   10.3497    0.3645   -0.0329 Cl  0  0  0  0  0  0
   -3.5896    5.2573    5.0937 F   0  0  0  0  0  0
    4.6824    5.5173    0.3031 C   0  0  0  0  0  0
    6.2193    5.6211    0.4168 C   0  0  0  0  0  0
    6.7063    6.3305    1.6892 C   0  0  0  0  0  0
   -2.3012    3.0176    4.6879 H   0  0  0  0  0  0
   -1.9436    1.9599    2.5222 H   0  0  0  0  0  0
   -4.1210    5.1795    0.6244 H   0  0  0  0  0  0
   -4.4545    6.2145    2.8172 H   0  0  0  0  0  0
   -2.5124    0.8493    0.7544 H   0  0  0  0  0  0
   -2.5470    0.9911   -0.9682 H   0  0  0  0  0  0
   -0.3333    2.1506   -0.9694 H   0  0  0  0  0  0
   -0.2550    2.0346    0.7703 H   0  0  0  0  0  0
   -0.3455   -0.5499    0.5343 H   0  0  0  0  0  0
   -0.2530   -0.3355   -1.2150 H   0  0  0  0  0  0
    1.8238    0.5977   -2.2272 H   0  0  0  0  0  0
    1.8923    2.0054   -1.1250 H   0  0  0  0  0  0
    3.9800   -0.2350   -1.4541 H   0  0  0  0  0  0
    4.1830    1.4133   -1.9644 H   0  0  0  0  0  0
    3.7757   -0.7949    1.0695 H   0  0  0  0  0  0
    3.9455    0.4575    2.2633 H   0  0  0  0  0  0
    1.7531    1.4774    1.4755 H   0  0  0  0  0  0
    1.5734   -0.2447    1.9237 H   0  0  0  0  0  0
    2.8962    4.7515    1.2792 H   0  0  0  0  0  0
    4.1673    5.1931    2.3878 H   0  0  0  0  0  0
    6.1926    2.5259   -1.2319 H   0  0  0  0  0  0
    8.6236    2.2240   -1.3364 H   0  0  0  0  0  0
    8.3474   -1.0406    1.4317 H   0  0  0  0  0  0
    5.9351   -0.7596    1.5540 H   0  0  0  0  0  0
    4.4323    5.0768   -0.6636 H   0  0  0  0  0  0
    4.2616    6.5233    0.2760 H   0  0  0  0  0  0
    6.6678    4.6285    0.3629 H   0  0  0  0  0  0
    6.5986    6.1615   -0.4515 H   0  0  0  0  0  0
    7.7925    6.4254    1.6874 H   0  0  0  0  0  0
    6.4287    5.7775    2.5869 H   0  0  0  0  0  0
    6.2868    7.3338    1.7686 H   0  0  0  0  0  0
    1.8079   -0.8511   -0.3533 H   0  0  0  0  0  0
  1  2  2  0  0  0
  1  6  1  0  0  0
  1 33  1  0  0  0
  2  3  1  0  0  0
  2 34  1  0  0  0
  3  4  2  0  0  0
  3  7  1  0  0  0
  4  5  1  0  0  0
  4 35  1  0  0  0
  5  6  2  0  0  0
  5 36  1  0  0  0
  6 29  1  0  0  0
  7  8  1  0  0  0
  7  9  2  0  0  0
  8 10  1  0  0  0
  8 37  1  0  0  0
  8 38  1  0  0  0
 10 11  1  0  0  0
 10 39  1  0  0  0
 10 40  1  0  0  0
 11 12  1  0  0  0
 11 41  1  0  0  0
 11 42  1  0  0  0
 12 17  1  0  0  0
 12 13  1  0  0  0
 12 64  1  0  0  0
 13 14  1  0  0  0
 13 43  1  0  0  0
 13 44  1  0  0  0
 14 15  1  0  0  0
 14 45  1  0  0  0
 14 46  1  0  0  0
 15 16  1  0  0  0
 15 18  1  0  0  0
 15 19  1  0  0  0
 16 17  1  0  0  0
 16 47  1  0  0  0
 16 48  1  0  0  0
 17 49  1  0  0  0
 17 50  1  0  0  0
 18 27  2  0  0  0
 18 23  1  0  0  0
 19 20  1  0  0  0
 20 21  1  0  0  0
 20 22  2  0  0  0
 21 30  1  0  0  0
 21 51  1  0  0  0
 21 52  1  0  0  0
 23 24  2  0  0  0
 23 53  1  0  0  0
 24 25  1  0  0  0
 24 54  1  0  0  0
 25 26  2  0  0  0
 25 28  1  0  0  0
 26 27  1  0  0  0
 26 55  1  0  0  0
 27 56  1  0  0  0
 30 31  1  0  0  0
 30 57  1  0  0  0
 30 58  1  0  0  0
 31 32  1  0  0  0
 31 59  1  0  0  0
 31 60  1  0  0  0
 32 61  1  0  0  0
 32 62  1  0  0  0
 32 63  1  0  0  0
M  CHG  1  12   1
M  END
> <s_m_entry_id>
86

> <s_m_entry_name>
entry

> <i_lp_mmshare_version>
47013

> <i_f3d_flags>
0

> <s_epik_input>
W2NIXTFbY0hdYyhGKVtjSF1bY0hdYzFDKD1PKVtDSDJdW0NIMl1bQ0gyXU4oW0NIMl1bQ0gyXTIpW0NIMl1bQ0gyXUMyKGMzW2NIXVtjSF1jKENsKVtjSF1bY0hdMylPQyg9TylbQ0gyXVtDSDJdW0NIMl1bQ0gzXQ==

> <s_epik_cmdline>
J2VwaWtfcHl0aG9uJywgJy1waCcsICc3LjQnLCAnLXRuJywgJzgnLCAnLW1hJywgJzIwMCcsICctaW1hZScsICc8aW5maWxlLm1hZT4nLCAnLW9tYWUnLCAnPG91dGZpbGUubWFlPic=

> <r_epik_Ionization_Penalty>
  0.0820

> <r_epik_Ionization_Penalty_Charging>
  0.0820

> <r_epik_Ionization_Penalty_Neutral>
  0.0000

> <r_epik_State_Penalty>
  0.0728

> <r_epik_Charging_Adjusted_Penalty>
0.154809061921727

> <i_epik_Tot_Q>
1

> <i_epik_Tot_abs_Q>
1

> <s_lp_Force_Field>
OPLS3e

> <r_lp_Energy>
27.863132

> <b_lp_Chiralities_Consistent>
1

> <s_lp_Variant>
2f-1

> <s_m_job_name>
ligprep_47

> <s_m_Source_Path>
/home/andre/Documents/projects/Esterase/data/FINAL_STUFF/Compounds/MAE_external

> <s_m_Source_File>
86.mae

> <i_m_Source_File_Index>
1

> <r_lp_tautomer_probability>
0.99990000499975

> <s_epik_Chemistry_Notes>
This compound has an ester and may undergo hydrolysis at high or low pH.

$$$$
