87
                    3D
 Schrodinger Suite 2021-1.
 64 66  0  0  1  0            999 V2000
   -6.3354    2.0135    0.9590 C   0  0  0  0  0  0
   -4.9501    1.9228    0.8503 C   0  0  0  0  0  0
   -4.1604    3.0837    0.8337 C   0  0  0  0  0  0
   -4.7898    4.3344    0.9248 C   0  0  0  0  0  0
   -6.1752    4.4228    1.0326 C   0  0  0  0  0  0
   -6.9431    3.2622    1.0500 C   0  0  0  0  0  0
   -2.6651    3.0199    0.7206 C   0  0  0  0  0  0
   -2.0112    1.6248    0.6515 C   0  0  0  0  0  0
   -1.9522    4.0259    0.6916 O   0  0  0  0  0  0
   -0.4687    1.6205    0.6107 C   0  0  0  0  0  0
    0.0961    0.1906    0.5480 C   0  0  0  0  0  0
    1.6296    0.1882    0.3311 N   0  3  1  0  0  0
    2.3860    0.7695    1.5495 C   0  0  0  0  0  0
    3.9058    0.7145    1.2870 C   0  0  0  0  0  0
    4.4411   -0.7102    0.9716 C   0  0  1  0  0  0
    3.6110   -1.2450   -0.2404 C   0  0  0  0  0  0
    2.0929   -1.2528    0.0173 C   0  0  0  0  0  0
    5.9688   -0.6293    0.7089 C   0  0  0  0  0  0
    4.1534   -1.4976    2.1466 O   0  0  0  0  0  0
    4.4954   -2.8080    2.3074 C   0  0  0  0  0  0
    4.0188   -3.3591    3.6636 C   0  0  2  0  0  0
    5.1148   -3.4978    1.4946 O   0  0  0  0  0  0
    6.8199   -0.2757    1.7663 C   0  0  0  0  0  0
    8.1966   -0.1992    1.5780 C   0  0  0  0  0  0
    8.7378   -0.4764    0.3261 C   0  0  0  0  0  0
    7.9101   -0.8305   -0.7360 C   0  0  0  0  0  0
    6.5329   -0.9072   -0.5464 C   0  0  0  0  0  0
   10.4449   -0.3833    0.0898 Cl  0  0  0  0  0  0
   -8.2884    3.3480    1.1566 F   0  0  0  0  0  0
    4.8656   -4.5661    4.1470 C   0  0  0  0  0  0
    4.6024   -4.9760    5.6046 C   0  0  0  0  0  0
    2.5097   -3.6826    3.5958 C   0  0  0  0  0  0
   -6.9368    1.1164    0.9730 H   0  0  0  0  0  0
   -4.5132    0.9376    0.7806 H   0  0  0  0  0  0
   -4.2156    5.2504    0.9140 H   0  0  0  0  0  0
   -6.6521    5.3894    1.1030 H   0  0  0  0  0  0
   -2.3448    1.0489    1.5155 H   0  0  0  0  0  0
   -2.3997    1.1098   -0.2278 H   0  0  0  0  0  0
   -0.1135    2.1904   -0.2494 H   0  0  0  0  0  0
   -0.0957    2.1299    1.4995 H   0  0  0  0  0  0
   -0.0988   -0.3852    1.4547 H   0  0  0  0  0  0
   -0.3168   -0.3393   -0.3120 H   0  0  0  0  0  0
    2.0801    1.8098    1.6525 H   0  0  0  0  0  0
    2.0831    0.2010    2.4305 H   0  0  0  0  0  0
    4.1453    1.3890    0.4629 H   0  0  0  0  0  0
    4.4150    1.1274    2.1590 H   0  0  0  0  0  0
    3.7935   -0.6258   -1.1200 H   0  0  0  0  0  0
    3.9286   -2.2512   -0.5153 H   0  0  0  0  0  0
    1.8020   -1.8902    0.8541 H   0  0  0  0  0  0
    1.5642   -1.5608   -0.8857 H   0  0  0  0  0  0
    4.1514   -2.5549    4.3889 H   0  0  0  0  0  0
    6.4148   -0.0640    2.7451 H   0  0  0  0  0  0
    8.8394    0.0722    2.4028 H   0  0  0  0  0  0
    8.3327   -1.0483   -1.7061 H   0  0  0  0  0  0
    5.9254   -1.1909   -1.3913 H   0  0  0  0  0  0
    4.6965   -5.4270    3.4976 H   0  0  0  0  0  0
    5.9276   -4.3314    4.0511 H   0  0  0  0  0  0
    5.2865   -5.7672    5.9124 H   0  0  0  0  0  0
    3.5893   -5.3530    5.7434 H   0  0  0  0  0  0
    4.7451   -4.1349    6.2840 H   0  0  0  0  0  0
    1.9243   -2.8089    3.3044 H   0  0  0  0  0  0
    2.1245   -4.0032    4.5633 H   0  0  0  0  0  0
    2.2987   -4.4760    2.8768 H   0  0  0  0  0  0
    1.8422    0.7575   -0.4763 H   0  0  0  0  0  0
  1  2  2  0  0  0
  1  6  1  0  0  0
  1 33  1  0  0  0
  2  3  1  0  0  0
  2 34  1  0  0  0
  3  4  2  0  0  0
  3  7  1  0  0  0
  4  5  1  0  0  0
  4 35  1  0  0  0
  5  6  2  0  0  0
  5 36  1  0  0  0
  6 29  1  0  0  0
  7  8  1  0  0  0
  7  9  2  0  0  0
  8 10  1  0  0  0
  8 37  1  0  0  0
  8 38  1  0  0  0
 10 11  1  0  0  0
 10 39  1  0  0  0
 10 40  1  0  0  0
 11 12  1  0  0  0
 11 41  1  0  0  0
 11 42  1  0  0  0
 12 17  1  0  0  0
 12 13  1  0  0  0
 12 64  1  0  0  0
 13 14  1  0  0  0
 13 43  1  0  0  0
 13 44  1  0  0  0
 14 15  1  0  0  0
 14 45  1  0  0  0
 14 46  1  0  0  0
 15 16  1  0  0  0
 15 18  1  0  0  0
 15 19  1  0  0  0
 16 17  1  0  0  0
 16 47  1  0  0  0
 16 48  1  0  0  0
 17 49  1  0  0  0
 17 50  1  0  0  0
 18 27  2  0  0  0
 18 23  1  0  0  0
 19 20  1  0  0  0
 20 21  1  0  0  0
 20 22  2  0  0  0
 21 30  1  0  0  0
 21 32  1  0  0  0
 21 51  1  0  0  0
 23 24  2  0  0  0
 23 52  1  0  0  0
 24 25  1  0  0  0
 24 53  1  0  0  0
 25 26  2  0  0  0
 25 28  1  0  0  0
 26 27  1  0  0  0
 26 54  1  0  0  0
 27 55  1  0  0  0
 30 31  1  0  0  0
 30 56  1  0  0  0
 30 57  1  0  0  0
 31 58  1  0  0  0
 31 59  1  0  0  0
 31 60  1  0  0  0
 32 61  1  0  0  0
 32 62  1  0  0  0
 32 63  1  0  0  0
M  CHG  1  12   1
M  END
> <s_m_entry_id>
87

> <s_m_entry_name>
entry

> <i_lp_mmshare_version>
47013

> <i_f3d_flags>
0

> <s_epik_input>
W2NIXTFbY0hdYyhGKVtjSF1bY0hdYzFDKD1PKVtDSDJdW0NIMl1bQ0gyXU4oW0NIMl1bQ0gyXTIpW0NIMl1bQ0gyXUMyKE9DKD1PKVtDQEBIXShbQ0gzXSlbQ0gyXVtDSDNdKWMzW2NIXVtjSF1jKENsKVtjSF1bY0hdMw==

> <s_epik_cmdline>
J2VwaWtfcHl0aG9uJywgJy1waCcsICc3LjQnLCAnLXRuJywgJzgnLCAnLW1hJywgJzIwMCcsICctaW1hZScsICc8aW5maWxlLm1hZT4nLCAnLW9tYWUnLCAnPG91dGZpbGUubWFlPic=

> <r_epik_Ionization_Penalty>
  0.0822

> <r_epik_Ionization_Penalty_Charging>
  0.0822

> <r_epik_Ionization_Penalty_Neutral>
  0.0000

> <r_epik_State_Penalty>
  0.0729

> <r_epik_Charging_Adjusted_Penalty>
0.155116302011209

> <i_epik_Tot_Q>
1

> <i_epik_Tot_abs_Q>
1

> <s_lp_Force_Field>
OPLS3e

> <r_lp_Energy>
27.259401

> <b_lp_Chiralities_Consistent>
1

> <s_lp_Variant>
2h-1

> <s_m_job_name>
ligprep_50

> <s_m_Source_Path>
/home/andre/Documents/projects/Esterase/data/FINAL_STUFF/Compounds/MAE_external

> <s_m_Source_File>
87.mae

> <i_m_Source_File_Index>
1

> <r_lp_tautomer_probability>
0.99990000499975

> <s_epik_Chemistry_Notes>
This compound has an ester and may undergo hydrolysis at high or low pH.

$$$$
