88
                    3D
 Schrodinger Suite 2021-1.
 64 66  0  0  1  0            999 V2000
    1.6732    4.1594    2.2026 C   0  0  0  0  0  0
    1.1062    3.5083    1.1104 C   0  0  0  0  0  0
    0.1972    2.4663    1.3129 C   0  0  0  0  0  0
   -0.1451    2.0805    2.6136 C   0  0  0  0  0  0
    0.4219    2.7331    3.7049 C   0  0  0  0  0  0
    1.3295    3.7692    3.4953 C   0  0  0  0  0  0
   -0.4139    1.7521    0.1019 C   0  0  0  0  0  0
    0.0494    0.2836   -0.0236 C   0  0  0  0  0  0
   -1.8432    1.7599    0.1638 O   0  0  0  0  0  0
    1.5648    0.1246   -0.2500 C   0  0  0  0  0  0
    1.9834   -1.3509   -0.3833 C   0  0  0  0  0  0
    3.5248   -1.4930   -0.4420 N   0  3  1  0  0  0
    3.9036   -2.9732   -0.2359 C   0  0  0  0  0  0
    5.4360   -3.0958   -0.1677 C   0  0  0  0  0  0
    6.2398   -2.4578   -1.3453 C   0  0  1  0  0  0
    5.6159   -1.0909   -1.7715 C   0  0  0  0  0  0
    4.0792   -1.0107   -1.7989 C   0  0  0  0  0  0
    7.7126   -2.2500   -0.9228 C   0  0  0  0  0  0
    6.0446   -3.3263   -2.4529 O   0  0  0  0  0  0
    8.7539   -2.8884   -1.6133 C   0  0  0  0  0  0
   10.0791   -2.6979   -1.2320 C   0  0  0  0  0  0
   10.3771   -1.8662   -0.1558 C   0  0  0  0  0  0
    9.3572   -1.2249    0.5421 C   0  0  0  0  0  0
    8.0325   -1.4160    0.1597 C   0  0  0  0  0  0
   12.0202   -1.6283    0.3158 Cl  0  0  0  0  0  0
    1.8818    4.4012    4.5553 F   0  0  0  0  0  0
   -2.5755    2.8974    0.0007 C   0  0  0  0  0  0
   -4.1031    2.6572    0.1514 C   0  0  0  0  0  0
   -4.5751    1.6331   -0.9108 C   0  0  0  0  0  0
   -4.8939    3.9767   -0.0549 C   0  0  0  0  0  0
   -4.4042    2.1234    1.5741 C   0  0  0  0  0  0
   -2.1016    4.0102   -0.2452 O   0  0  0  0  0  0
    2.3762    4.9647    2.0479 H   0  0  0  0  0  0
    1.3746    3.8148    0.1098 H   0  0  0  0  0  0
   -0.8494    1.2782    2.7786 H   0  0  0  0  0  0
    0.1589    2.4374    4.7098 H   0  0  0  0  0  0
    1.8383    0.6807   -1.1461 H   0  0  0  0  0  0
    2.1143    0.5781    0.5759 H   0  0  0  0  0  0
    1.6726   -1.9035    0.5051 H   0  0  0  0  0  0
    1.5763   -1.8388   -1.2710 H   0  0  0  0  0  0
    3.4651   -3.2901    0.7116 H   0  0  0  0  0  0
    3.4661   -3.5476   -1.0547 H   0  0  0  0  0  0
    5.7672   -2.6879    0.7876 H   0  0  0  0  0  0
    5.7090   -4.1487   -0.0738 H   0  0  0  0  0  0
    5.9849   -0.2871   -1.1341 H   0  0  0  0  0  0
    6.0083   -0.8051   -2.7495 H   0  0  0  0  0  0
    3.6352   -1.6301   -2.5803 H   0  0  0  0  0  0
    3.7760    0.0264   -1.9347 H   0  0  0  0  0  0
    5.1045   -3.3873   -2.6347 H   0  0  0  0  0  0
    8.5506   -3.5379   -2.4519 H   0  0  0  0  0  0
   10.8712   -3.1955   -1.7723 H   0  0  0  0  0  0
    9.5897   -0.5806    1.3774 H   0  0  0  0  0  0
    7.2552   -0.9089    0.7123 H   0  0  0  0  0  0
   -5.6501    1.4603   -0.8409 H   0  0  0  0  0  0
   -4.0946    0.6609   -0.7892 H   0  0  0  0  0  0
   -4.3736    1.9782   -1.9265 H   0  0  0  0  0  0
   -4.7281    4.4018   -1.0463 H   0  0  0  0  0  0
   -4.6225    4.7352    0.6816 H   0  0  0  0  0  0
   -5.9682    3.8133    0.0422 H   0  0  0  0  0  0
   -5.4744    1.9682    1.7187 H   0  0  0  0  0  0
   -4.0759    2.8194    2.3481 H   0  0  0  0  0  0
   -3.9214    1.1635    1.7652 H   0  0  0  0  0  0
    3.9163   -0.9418    0.3090 H   0  0  0  0  0  0
   -0.6707   -0.5179    0.0493 H   0  0  0  0  0  0
  1  2  2  0  0  0
  1  6  1  0  0  0
  1 33  1  0  0  0
  2  3  1  0  0  0
  2 34  1  0  0  0
  3  4  2  0  0  0
  3  7  1  0  0  0
  4  5  1  0  0  0
  4 35  1  0  0  0
  5  6  2  0  0  0
  5 36  1  0  0  0
  6 26  1  0  0  0
  7  8  2  0  0  0
  7  9  1  0  0  0
  8 10  1  0  0  0
  8 64  1  0  0  0
  9 27  1  0  0  0
 10 11  1  0  0  0
 10 37  1  0  0  0
 10 38  1  0  0  0
 11 12  1  0  0  0
 11 39  1  0  0  0
 11 40  1  0  0  0
 12 17  1  0  0  0
 12 13  1  0  0  0
 12 63  1  0  0  0
 13 14  1  0  0  0
 13 41  1  0  0  0
 13 42  1  0  0  0
 14 15  1  0  0  0
 14 43  1  0  0  0
 14 44  1  0  0  0
 15 16  1  0  0  0
 15 18  1  0  0  0
 15 19  1  0  0  0
 16 17  1  0  0  0
 16 45  1  0  0  0
 16 46  1  0  0  0
 17 47  1  0  0  0
 17 48  1  0  0  0
 18 24  2  0  0  0
 18 20  1  0  0  0
 19 49  1  0  0  0
 20 21  2  0  0  0
 20 50  1  0  0  0
 21 22  1  0  0  0
 21 51  1  0  0  0
 22 23  2  0  0  0
 22 25  1  0  0  0
 23 24  1  0  0  0
 23 52  1  0  0  0
 24 53  1  0  0  0
 27 28  1  0  0  0
 27 32  2  0  0  0
 28 29  1  0  0  0
 28 30  1  0  0  0
 28 31  1  0  0  0
 29 54  1  0  0  0
 29 55  1  0  0  0
 29 56  1  0  0  0
 30 57  1  0  0  0
 30 58  1  0  0  0
 30 59  1  0  0  0
 31 60  1  0  0  0
 31 61  1  0  0  0
 31 62  1  0  0  0
M  CHG  1  12   1
M  END
> <s_m_entry_id>
88

> <s_m_entry_name>
entry

> <i_lp_mmshare_version>
47013

> <i_f3d_flags>
0

> <s_epik_input>
W2NIXTFbY0hdYyhGKVtjSF1bY0hdYzFbQ0BIXShPQyg9TylDKFtDSDNdKShbQ0gzXSlbQ0gzXSlbQ0gyXVtDSDJdW0NIMl1OKFtDSDJdW0NIMl0yKVtDSDJdW0NIMl1DMihbT0hdKWMzW2NIXVtjSF1jKENsKVtjSF1bY0hdMw==

> <s_epik_cmdline>
J2VwaWtfcHl0aG9uJywgJy1waCcsICc3LjQnLCAnLXRuJywgJzgnLCAnLW1hJywgJzIwMCcsICctaW1hZScsICc8aW5maWxlLm1hZT4nLCAnLW9tYWUnLCAnPG91dGZpbGUubWFlPic=

> <r_epik_Ionization_Penalty>
  0.0241

> <r_epik_Ionization_Penalty_Charging>
  0.0241

> <r_epik_Ionization_Penalty_Neutral>
  0.0000

> <r_epik_State_Penalty>
  0.0195

> <r_epik_Charging_Adjusted_Penalty>
0.0436466070661991

> <i_epik_Tot_Q>
1

> <i_epik_Tot_abs_Q>
1

> <s_lp_Force_Field>
OPLS3e

> <r_lp_Energy>
31.777805

> <b_lp_Chiralities_Consistent>
1

> <s_lp_Variant>
3-1

> <s_m_job_name>
ligprep_48

> <s_m_Source_Path>
/home/andre/Documents/projects/Esterase/data/FINAL_STUFF/Compounds/MAE_external

> <s_m_Source_File>
88.mae

> <i_m_Source_File_Index>
1

> <s_epik_Chemistry_Notes>
This compound has an ester and may undergo hydrolysis at high or low pH.

$$$$
