90
                    3D
 Schrodinger Suite 2021-1.
 63 67  0  0  1  0            999 V2000
   -2.1507    2.6676   -1.1717 C   0  0  0  0  0  0
   -1.3188    1.4492   -0.8488 C   0  0  0  0  0  0
   -0.6230    1.2210    0.1884 N   0  0  0  0  0  0
    0.0092   -0.0847    0.0499 C   0  0  2  0  0  0
   -0.6169   -0.6698   -1.2531 C   0  0  2  0  0  0
   -1.2909    0.4543   -1.7784 O   0  0  0  0  0  0
   -1.6176   -1.7719   -0.8327 C   0  0  0  0  0  0
   -1.7639   -1.5790    0.6806 C   0  0  2  0  0  0
   -0.3425   -1.1711    1.1588 C   0  0  2  0  0  0
   -0.4301   -0.6599    2.6354 C   0  0  0  0  0  0
   -1.3370   -1.4982    3.5913 C   0  0  1  0  0  0
   -2.6865   -1.9784    2.9549 C   0  0  2  0  0  0
   -2.4594   -2.6549    1.5590 C   0  0  1  0  0  0
   -3.7781   -3.2274    0.9536 C   0  0  0  0  0  0
   -5.0945   -2.6773    1.5421 C   0  0  0  0  0  0
   -4.8739   -1.2082    1.8581 C   0  0  0  0  0  0
   -5.3998   -0.2207    1.0950 C   0  0  0  0  0  0
   -5.0970    1.2026    1.2441 C   0  0  0  0  0  0
   -5.6367    2.0826    0.5766 O   0  0  0  0  0  0
   -4.0631    1.4740    2.2389 C   0  0  0  0  0  0
   -3.5201    0.5298    3.0339 C   0  0  0  0  0  0
   -3.9071   -0.9612    3.0489 C   0  0  2  0  0  0
   -4.6824   -1.1762    4.3744 C   0  0  0  0  0  0
   -0.6133   -2.6068    4.0930 O   0  0  0  0  0  0
    0.6493   -2.3851    1.1282 C   0  0  0  0  0  0
    1.5567    0.1751   -0.0890 C   0  0  0  0  0  0
    2.2415   -0.4896   -0.8678 O   0  0  0  0  0  0
    2.2397    1.3350    0.6599 C   0  0  0  0  0  0
    1.7165    1.4984    1.9718 O   0  0  0  0  0  0
    2.0868    2.5449    2.7362 C   0  0  0  0  0  0
    2.8820    3.4318    2.4228 O   0  0  0  0  0  0
    1.4025    2.5472    4.0983 C   0  0  0  0  0  0
   -2.0950    3.4095   -0.3747 H   0  0  0  0  0  0
   -3.1982    2.3950   -1.3008 H   0  0  0  0  0  0
   -1.8074    3.1373   -2.0933 H   0  0  0  0  0  0
    0.1059   -1.0653   -1.9681 H   0  0  0  0  0  0
   -2.5852   -1.6832   -1.3281 H   0  0  0  0  0  0
   -1.2122   -2.7568   -1.0671 H   0  0  0  0  0  0
   -2.3864   -0.6878    0.7732 H   0  0  0  0  0  0
    0.5586   -0.4823    3.0576 H   0  0  0  0  0  0
   -0.9196    0.3081    2.5650 H   0  0  0  0  0  0
   -1.5564   -0.8975    4.4744 H   0  0  0  0  0  0
   -3.0009   -2.8299    3.5635 H   0  0  0  0  0  0
   -1.7907   -3.5040    1.6934 H   0  0  0  0  0  0
   -3.7643   -3.2345   -0.1355 H   0  0  0  0  0  0
   -3.7897   -4.2957    1.1769 H   0  0  0  0  0  0
   -5.9177   -2.8439    0.8459 H   0  0  0  0  0  0
   -5.3666   -3.2152    2.4505 H   0  0  0  0  0  0
   -6.0357   -0.5155    0.2727 H   0  0  0  0  0  0
   -3.7089    2.4878    2.3568 H   0  0  0  0  0  0
   -2.7893    0.8791    3.7479 H   0  0  0  0  0  0
   -5.5515   -0.5197    4.4467 H   0  0  0  0  0  0
   -4.0511   -0.9741    5.2409 H   0  0  0  0  0  0
   -5.0471   -2.1980    4.4811 H   0  0  0  0  0  0
    0.1481   -2.2811    4.5784 H   0  0  0  0  0  0
    0.3310   -3.2227    1.7442 H   0  0  0  0  0  0
    1.6334   -2.1023    1.5036 H   0  0  0  0  0  0
    0.7976   -2.7761    0.1217 H   0  0  0  0  0  0
    3.3126    1.1439    0.7165 H   0  0  0  0  0  0
    2.1056    2.2467    0.0753 H   0  0  0  0  0  0
    0.8314    1.6327    4.2602 H   0  0  0  0  0  0
    0.7207    3.3944    4.1724 H   0  0  0  0  0  0
    2.1456    2.6316    4.8913 H   0  0  0  0  0  0
  1  2  1  0  0  0
  1 33  1  0  0  0
  1 34  1  0  0  0
  1 35  1  0  0  0
  2  6  1  0  0  0
  2  3  2  0  0  0
  3  4  1  0  0  0
  4  9  1  0  0  0
  4  5  1  0  0  0
  4 26  1  0  0  0
  5  6  1  0  0  0
  5  7  1  0  0  0
  5 36  1  0  0  0
  7  8  1  0  0  0
  7 37  1  0  0  0
  7 38  1  0  0  0
  8 13  1  0  0  0
  8  9  1  0  0  0
  8 39  1  0  0  0
  9 10  1  0  0  0
  9 25  1  0  0  0
 10 11  1  0  0  0
 10 40  1  0  0  0
 10 41  1  0  0  0
 11 12  1  0  0  0
 11 24  1  0  0  0
 11 42  1  0  0  0
 12 22  1  0  0  0
 12 13  1  0  0  0
 12 43  1  0  0  0
 13 14  1  0  0  0
 13 44  1  0  0  0
 14 15  1  0  0  0
 14 45  1  0  0  0
 14 46  1  0  0  0
 15 16  1  0  0  0
 15 47  1  0  0  0
 15 48  1  0  0  0
 16 22  1  0  0  0
 16 17  2  0  0  0
 17 18  1  0  0  0
 17 49  1  0  0  0
 18 19  2  0  0  0
 18 20  1  0  0  0
 20 21  2  0  0  0
 20 50  1  0  0  0
 21 22  1  0  0  0
 21 51  1  0  0  0
 22 23  1  0  0  0
 23 52  1  0  0  0
 23 53  1  0  0  0
 23 54  1  0  0  0
 24 55  1  0  0  0
 25 56  1  0  0  0
 25 57  1  0  0  0
 25 58  1  0  0  0
 26 27  2  0  0  0
 26 28  1  0  0  0
 28 29  1  0  0  0
 28 59  1  0  0  0
 28 60  1  0  0  0
 29 30  1  0  0  0
 30 31  2  0  0  0
 30 32  1  0  0  0
 32 61  1  0  0  0
 32 62  1  0  0  0
 32 63  1  0  0  0
M  END
> <s_m_entry_id>
90

> <s_m_entry_name>
entry

> <i_lp_mmshare_version>
47013

> <i_f3d_flags>
0

> <s_epik_input>
Tz1DKFtDSDNdKU9bQ0gyXUMoPU8pW0NAXTEyW0NASF0oT0MoPU4xKVtDSDNdKVtDSDJdW0NAQEhdM1tDQF0yKFtDSDNdKVtDSDJdW0NASF0oW09IXSlbQ0BASF00W0NASF0zW0NIMl1bQ0gyXUM9NVtDQF00KFtDSDNdKVtDSF09W0NIXUMoPU8pW0NIXTU=

> <s_epik_cmdline>
J2VwaWtfcHl0aG9uJywgJy1waCcsICc3LjQnLCAnLXRuJywgJzgnLCAnLW1hJywgJzIwMCcsICctaW1hZScsICc8aW5maWxlLm1hZT4nLCAnLW9tYWUnLCAnPG91dGZpbGUubWFlPic=

> <r_epik_Ionization_Penalty>
  0.0005

> <r_epik_Ionization_Penalty_Charging>
  0.0000

> <r_epik_Ionization_Penalty_Neutral>
  0.0005

> <r_epik_State_Penalty>
  0.0003

> <r_epik_Charging_Adjusted_Penalty>
0.000311612652969305

> <i_epik_Tot_Q>
0

> <i_epik_Tot_abs_Q>
0

> <s_lp_Force_Field>
OPLS3e

> <r_lp_Energy>
41.530705

> <b_lp_Chiralities_Consistent>
1

> <s_lp_Variant>
189821-1

> <s_m_job_name>
ligprep_5

> <s_m_Source_Path>
/home/andre/Documents/projects/Esterase/data/FINAL_STUFF/Compounds/MAE_external

> <s_m_Source_File>
90.mae

> <i_m_Source_File_Index>
1

> <r_lp_tautomer_probability>
0.999501243881547

> <s_epik_Chemistry_Notes>
This compound has an ester and may undergo hydrolysis at high or low pH. This compound has an imine and may undergo hydrolysis.

$$$$
