91
                    3D
 Schrodinger Suite 2021-1.
 47 50  0  0  1  0            999 V2000
   -4.9685   -1.0555   -0.2445 C   0  0  0  0  0  0
   -4.2505    0.1664   -0.1648 C   0  0  0  0  0  0
   -2.8281    0.1052   -0.1353 C   0  0  0  0  0  0
   -2.1434   -1.1380   -0.1875 C   0  0  0  0  0  0
   -2.8986   -2.3143   -0.2661 C   0  0  0  0  0  0
   -4.2900   -2.2708   -0.2934 C   0  0  0  0  0  0
   -4.8773    1.4446   -0.1137 C   0  0  0  0  0  0
   -4.0883    2.5945   -0.0165 C   0  0  0  0  0  0
   -2.6984    2.5189    0.0095 C   0  0  0  0  0  0
   -2.0430    1.2840   -0.0498 C   0  0  0  0  0  0
   -0.5267    1.2471   -0.0144 C   0  0  0  0  0  0
    0.0175   -0.0182   -0.0595 N   0  0  0  0  0  0
   -0.6296   -1.2309   -0.1590 C   0  0  0  0  0  0
    1.5039   -0.0845    0.0044 C   0  0  0  0  0  0
    2.1894   -0.0316   -1.3769 C   0  0  0  0  0  0
    3.7200   -0.1394   -1.2768 C   0  0  0  0  0  0
    4.4153   -0.0697   -2.6431 C   0  0  0  0  0  0
    0.1562    2.2755    0.0474 O   0  0  0  0  0  0
   -0.0347   -2.3125   -0.2235 O   0  0  0  0  0  0
   -6.2514    1.5576   -0.1163 O   0  0  0  0  0  0
   -6.9126    1.8412   -1.2819 C   0  0  0  0  0  0
   -8.4042    1.8768   -1.1147 C   0  0  0  0  0  0
   -9.2056    2.2558   -2.2018 C   0  0  0  0  0  0
  -10.5924    2.2878   -2.0811 C   0  0  0  0  0  0
  -11.1890    1.9389   -0.8731 C   0  0  0  0  0  0
  -10.4102    1.5597    0.2163 C   0  0  0  0  0  0
   -9.0232    1.5285    0.0976 C   0  0  0  0  0  0
   -6.3497    2.0596   -2.3601 O   0  0  0  0  0  0
   -6.0486   -1.0429   -0.2687 H   0  0  0  0  0  0
   -2.4163   -3.2809   -0.3065 H   0  0  0  0  0  0
   -4.8508   -3.1919   -0.3535 H   0  0  0  0  0  0
   -4.5626    3.5638    0.0349 H   0  0  0  0  0  0
   -2.1378    3.4404    0.0797 H   0  0  0  0  0  0
    1.9060    0.7115    0.6341 H   0  0  0  0  0  0
    1.8317   -0.9834    0.5303 H   0  0  0  0  0  0
    1.8151   -0.8430   -2.0032 H   0  0  0  0  0  0
    1.9282    0.9018   -1.8780 H   0  0  0  0  0  0
    4.1036    0.6589   -0.6398 H   0  0  0  0  0  0
    3.9891   -1.0767   -0.7874 H   0  0  0  0  0  0
    5.4965   -0.1584   -2.5335 H   0  0  0  0  0  0
    4.2102    0.8771   -3.1440 H   0  0  0  0  0  0
    4.0823   -0.8749   -3.2989 H   0  0  0  0  0  0
   -8.7643    2.5294   -3.1501 H   0  0  0  0  0  0
  -11.2028    2.5808   -2.9225 H   0  0  0  0  0  0
  -12.2649    1.9617   -0.7806 H   0  0  0  0  0  0
  -10.8802    1.2884    1.1502 H   0  0  0  0  0  0
   -8.4452    1.2263    0.9593 H   0  0  0  0  0  0
  1  2  2  0  0  0
  1  6  1  0  0  0
  1 29  1  0  0  0
  2  3  1  0  0  0
  2  7  1  0  0  0
  3  4  2  0  0  0
  3 10  1  0  0  0
  4  5  1  0  0  0
  4 13  1  0  0  0
  5  6  2  0  0  0
  5 30  1  0  0  0
  6 31  1  0  0  0
  7  8  2  0  0  0
  7 20  1  0  0  0
  8  9  1  0  0  0
  8 32  1  0  0  0
  9 10  2  0  0  0
  9 33  1  0  0  0
 10 11  1  0  0  0
 11 12  1  0  0  0
 11 18  2  0  0  0
 12 13  1  0  0  0
 12 14  1  0  0  0
 13 19  2  0  0  0
 14 15  1  0  0  0
 14 34  1  0  0  0
 14 35  1  0  0  0
 15 16  1  0  0  0
 15 36  1  0  0  0
 15 37  1  0  0  0
 16 17  1  0  0  0
 16 38  1  0  0  0
 16 39  1  0  0  0
 17 40  1  0  0  0
 17 41  1  0  0  0
 17 42  1  0  0  0
 20 21  1  0  0  0
 21 22  1  0  0  0
 21 28  2  0  0  0
 22 27  2  0  0  0
 22 23  1  0  0  0
 23 24  2  0  0  0
 23 43  1  0  0  0
 24 25  1  0  0  0
 24 44  1  0  0  0
 25 26  2  0  0  0
 25 45  1  0  0  0
 26 27  1  0  0  0
 26 46  1  0  0  0
 27 47  1  0  0  0
M  END
> <s_m_entry_id>
91

> <s_m_entry_name>
entry

> <i_lp_mmshare_version>
47013

> <i_f3d_flags>
0

> <s_epik_input>
W2NIXTFbY0hdW2NIXWMoYzJjMTMpQyg9TylOKFtDSDJdW0NIMl1bQ0gyXVtDSDNdKUMoPU8pYzJbY0hdW2NIXWMzT0MoPU8pYzRbY0hdW2NIXVtjSF1bY0hdW2NIXTQ=

> <s_epik_cmdline>
J2VwaWtfcHl0aG9uJywgJy1waCcsICc3LjQnLCAnLXRuJywgJzgnLCAnLW1hJywgJzIwMCcsICctaW1hZScsICc8aW5maWxlLm1hZT4nLCAnLW9tYWUnLCAnPG91dGZpbGUubWFlPic=

> <r_epik_Ionization_Penalty>
  0.0000

> <r_epik_Ionization_Penalty_Charging>
  0.0000

> <r_epik_Ionization_Penalty_Neutral>
  0.0000

> <r_epik_State_Penalty>
  0.0000

> <r_epik_Charging_Adjusted_Penalty>
0

> <i_epik_Tot_Q>
0

> <i_epik_Tot_abs_Q>
0

> <s_lp_Force_Field>
OPLS3e

> <r_lp_Energy>
44.867262

> <b_lp_Chiralities_Consistent>
1

> <s_lp_Variant>
M105-1

> <s_m_job_name>
ligprep_6

> <s_m_Source_Path>
/home/andre/Documents/projects/Esterase/data/FINAL_STUFF/Compounds/MAE_external

> <s_m_Source_File>
91.mae

> <i_m_Source_File_Index>
1

> <r_lp_tautomer_probability>
1

$$$$
