95
                    3D
 Schrodinger Suite 2021-1.
 57 60  0  0  1  0            999 V2000
   -0.7809    3.7504    0.4613 C   0  0  0  0  0  0
   -0.8693    2.2288    0.4515 C   0  0  0  0  0  0
    0.1940    1.3397    0.5289 C   0  0  0  0  0  0
   -0.3692    0.0296    0.6200 C   0  0  0  0  0  0
   -1.7824    0.1657    0.5586 C   0  0  0  0  0  0
   -2.0757    1.5201    0.4056 N   0  0  0  0  0  0
   -3.3854    2.1042    0.3061 C   0  0  0  0  0  0
   -4.3312    1.6088    0.9217 O   0  0  0  0  0  0
   -3.6257    3.2673   -0.6256 C   0  0  0  0  0  0
   -4.5337    4.2711   -0.2667 C   0  0  0  0  0  0
   -4.7786    5.3358   -1.1297 C   0  0  0  0  0  0
   -4.1255    5.3948   -2.3589 C   0  0  0  0  0  0
   -3.2333    4.3928   -2.7341 C   0  0  0  0  0  0
   -2.9879    3.3276   -1.8721 C   0  0  0  0  0  0
   -4.4281    6.7160   -3.4273 Cl  0  0  0  0  0  0
   -2.6221   -0.9580    0.6229 C   0  0  0  0  0  0
   -2.0217   -2.2078    0.7599 C   0  0  0  0  0  0
   -0.6417   -2.3740    0.8319 C   0  0  0  0  0  0
    0.1933   -1.2506    0.7551 C   0  0  0  0  0  0
   -0.1867   -3.6704    0.9783 O   0  0  0  0  0  0
    1.2092   -3.9041    1.1285 C   0  0  0  0  0  0
    1.6806    1.6638    0.5364 C   0  0  0  0  0  0
    2.3804    1.4042    1.8763 C   0  0  0  0  0  0
    1.7587    1.2500    2.9306 O   0  0  0  0  0  0
    3.7282    1.3658    1.7389 O   0  0  0  0  0  0
    4.5958    1.0476    2.8323 C   0  0  2  0  0  0
    6.0319    1.4204    2.4141 C   0  0  0  0  0  0
    4.4613   -0.4242    3.2434 C   0  0  0  0  0  0
    4.4983   -1.4393    2.2805 C   0  0  0  0  0  0
    4.3736   -2.7708    2.6670 C   0  0  0  0  0  0
    4.2084   -3.0854    4.0139 C   0  0  0  0  0  0
    4.1713   -2.0809    4.9784 C   0  0  0  0  0  0
    4.2989   -0.7491    4.5929 C   0  0  0  0  0  0
    7.1934    1.1683    3.7461 Cl  0  0  0  0  0  0
    0.1391    4.0946    0.9334 H   0  0  0  0  0  0
   -1.5889    4.2181    1.0242 H   0  0  0  0  0  0
   -0.7854    4.1716   -0.5432 H   0  0  0  0  0  0
   -5.0494    4.2367    0.6829 H   0  0  0  0  0  0
   -5.4750    6.1107   -0.8443 H   0  0  0  0  0  0
   -2.7335    4.4374   -3.6907 H   0  0  0  0  0  0
   -2.2992    2.5535   -2.1800 H   0  0  0  0  0  0
   -3.6975   -0.8778    0.5662 H   0  0  0  0  0  0
   -2.6561   -3.0807    0.8142 H   0  0  0  0  0  0
    1.2665   -1.3511    0.8076 H   0  0  0  0  0  0
    1.3857   -4.9726    1.2501 H   0  0  0  0  0  0
    1.6004   -3.4025    2.0147 H   0  0  0  0  0  0
    1.7695   -3.5743    0.2524 H   0  0  0  0  0  0
    2.1926    1.0866   -0.2342 H   0  0  0  0  0  0
    1.8524    2.7084    0.2783 H   0  0  0  0  0  0
    4.3141    1.6764    3.6794 H   0  0  0  0  0  0
    6.3694    0.8262    1.5641 H   0  0  0  0  0  0
    6.0939    2.4708    2.1274 H   0  0  0  0  0  0
    4.6237   -1.1973    1.2351 H   0  0  0  0  0  0
    4.4013   -3.5558    1.9257 H   0  0  0  0  0  0
    4.1090   -4.1183    4.3137 H   0  0  0  0  0  0
    4.0442   -2.3335    6.0207 H   0  0  0  0  0  0
    4.2698    0.0279    5.3429 H   0  0  0  0  0  0
  1  2  1  0  0  0
  1 35  1  0  0  0
  1 36  1  0  0  0
  1 37  1  0  0  0
  2  6  1  0  0  0
  2  3  2  0  0  0
  3  4  1  0  0  0
  3 22  1  0  0  0
  4 19  1  0  0  0
  4  5  2  0  0  0
  5  6  1  0  0  0
  5 16  1  0  0  0
  6  7  1  0  0  0
  7  8  2  0  0  0
  7  9  1  0  0  0
  9 14  1  0  0  0
  9 10  2  0  0  0
 10 11  1  0  0  0
 10 38  1  0  0  0
 11 12  2  0  0  0
 11 39  1  0  0  0
 12 13  1  0  0  0
 12 15  1  0  0  0
 13 14  2  0  0  0
 13 40  1  0  0  0
 14 41  1  0  0  0
 16 17  2  0  0  0
 16 42  1  0  0  0
 17 18  1  0  0  0
 17 43  1  0  0  0
 18 19  2  0  0  0
 18 20  1  0  0  0
 19 44  1  0  0  0
 20 21  1  0  0  0
 21 45  1  0  0  0
 21 46  1  0  0  0
 21 47  1  0  0  0
 22 23  1  0  0  0
 22 48  1  0  0  0
 22 49  1  0  0  0
 23 24  2  0  0  0
 23 25  1  0  0  0
 25 26  1  0  0  0
 26 27  1  0  0  0
 26 28  1  0  0  0
 26 50  1  0  0  0
 27 34  1  0  0  0
 27 51  1  0  0  0
 27 52  1  0  0  0
 28 33  2  0  0  0
 28 29  1  0  0  0
 29 30  2  0  0  0
 29 53  1  0  0  0
 30 31  1  0  0  0
 30 54  1  0  0  0
 31 32  2  0  0  0
 31 55  1  0  0  0
 32 33  1  0  0  0
 32 56  1  0  0  0
 33 57  1  0  0  0
M  END
> <s_m_entry_id>
95

> <s_m_entry_name>
entry

> <i_lp_mmshare_version>
47013

> <i_f3d_flags>
0

> <s_epik_input>
W2NIXTFbY0hdYyhDbClbY0hdW2NIXWMxQyg9TyluKGMoYzIzKVtjSF1bY0hdYyhbY0hdMylPW0NIM10pYyhbQ0gzXSljMltDSDJdQyg9TylPW0NASF0oW0NIMl1DbCljNFtjSF1bY0hdW2NIXVtjSF1bY0hdNA==

> <s_epik_cmdline>
J2VwaWtfcHl0aG9uJywgJy1waCcsICc3LjQnLCAnLXRuJywgJzgnLCAnLW1hJywgJzIwMCcsICctaW1hZScsICc8aW5maWxlLm1hZT4nLCAnLW9tYWUnLCAnPG91dGZpbGUubWFlPic=

> <r_epik_Ionization_Penalty>
  0.0000

> <r_epik_Ionization_Penalty_Charging>
  0.0000

> <r_epik_Ionization_Penalty_Neutral>
  0.0000

> <r_epik_State_Penalty>
  0.0000

> <r_epik_Charging_Adjusted_Penalty>
0

> <i_epik_Tot_Q>
0

> <i_epik_Tot_abs_Q>
0

> <s_lp_Force_Field>
OPLS3e

> <r_lp_Energy>
51.392928

> <b_lp_Chiralities_Consistent>
1

> <s_lp_Variant>
Indomethacin_chlorine_b-1

> <s_m_job_name>
ligprep_19

> <s_m_Source_Path>
/home/andre/Documents/projects/Esterase/data/FINAL_STUFF/Compounds/MAE_external

> <s_m_Source_File>
95.mae

> <i_m_Source_File_Index>
1

> <r_lp_tautomer_probability>
1

> <s_epik_Chemistry_Notes>
This compound has an ester and may undergo hydrolysis at high or low pH.

$$$$
