96
                    3D
 Schrodinger Suite 2021-1.
 36 38  0  0  1  0            999 V2000
   -2.0368    1.1006   -0.7784 C   0  0  0  0  0  0
   -2.8061   -0.0226   -0.4564 C   0  0  0  0  0  0
   -2.1702   -1.1982    0.0051 C   0  0  0  0  0  0
   -0.7784   -1.2650    0.1490 C   0  0  0  0  0  0
    0.0022   -0.1374   -0.1713 C   0  0  0  0  0  0
   -0.6513    1.0221   -0.6312 C   0  0  0  0  0  0
   -3.3925   -2.4198    0.3214 S   0  0  0  0  0  0
   -4.6183   -1.2629   -0.1854 C   0  0  0  0  0  0
   -4.1603   -0.0934   -0.5494 N   0  0  0  0  0  0
   -6.0394   -1.6296   -0.1805 C   0  0  0  0  0  0
   -7.2785   -0.4291   -0.6751 S   0  0  0  0  0  0
   -8.5755   -1.6077   -0.2753 C   0  0  0  0  0  0
   -7.8793   -2.9341    0.0851 C   0  0  1  0  0  0
   -6.4449   -2.7837    0.1680 N   0  0  0  0  0  0
    1.4205   -0.1728   -0.0432 N   0  0  0  0  0  0
    2.1934    1.0694   -0.0852 C   0  0  0  0  0  0
    2.0838   -1.3395    0.5402 C   0  0  0  0  0  0
   -8.3161   -3.5079    1.4482 C   0  0  0  0  0  0
   -8.5456   -4.8376    1.3919 O   0  0  0  0  0  0
   -8.4578   -2.7938    2.4454 O   0  0  0  0  0  0
   -8.9625   -5.5474    2.5490 C   0  0  0  0  0  0
   -2.4987    2.0103   -1.1338 H   0  0  0  0  0  0
   -0.3350   -2.1811    0.5070 H   0  0  0  0  0  0
   -0.0906    1.9067   -0.8910 H   0  0  0  0  0  0
   -9.1809   -1.1771    0.5243 H   0  0  0  0  0  0
   -9.2162   -1.7217   -1.1500 H   0  0  0  0  0  0
   -8.0876   -3.6783   -0.6855 H   0  0  0  0  0  0
    2.0415    1.5962   -1.0277 H   0  0  0  0  0  0
    3.2636    0.8923    0.0282 H   0  0  0  0  0  0
    1.8800    1.7342    0.7208 H   0  0  0  0  0  0
    1.7818   -2.2580    0.0361 H   0  0  0  0  0  0
    1.8169   -1.4355    1.5936 H   0  0  0  0  0  0
    3.1700   -1.2684    0.4727 H   0  0  0  0  0  0
   -9.1015   -6.6008    2.3059 H   0  0  0  0  0  0
   -9.9087   -5.1587    2.9286 H   0  0  0  0  0  0
   -8.2159   -5.4775    3.3416 H   0  0  0  0  0  0
  1  2  2  0  0  0
  1  6  1  0  0  0
  1 22  1  0  0  0
  2  3  1  0  0  0
  2  9  1  0  0  0
  3  4  2  0  0  0
  3  7  1  0  0  0
  4  5  1  0  0  0
  4 23  1  0  0  0
  5  6  2  0  0  0
  5 15  1  0  0  0
  6 24  1  0  0  0
  7  8  1  0  0  0
  8  9  2  0  0  0
  8 10  1  0  0  0
 10 14  2  0  0  0
 10 11  1  0  0  0
 11 12  1  0  0  0
 12 13  1  0  0  0
 12 25  1  0  0  0
 12 26  1  0  0  0
 13 14  1  0  0  0
 13 18  1  0  0  0
 13 27  1  0  0  0
 15 16  1  0  0  0
 15 17  1  0  0  0
 16 28  1  0  0  0
 16 29  1  0  0  0
 16 30  1  0  0  0
 17 31  1  0  0  0
 17 32  1  0  0  0
 17 33  1  0  0  0
 18 19  1  0  0  0
 18 20  2  0  0  0
 19 21  1  0  0  0
 21 34  1  0  0  0
 21 35  1  0  0  0
 21 36  1  0  0  0
M  END
> <s_m_entry_id>
96

> <s_m_entry_name>
entry

> <i_lp_mmshare_version>
47013

> <i_f3d_flags>
0

> <s_epik_input>
W2NIXTFbY0hdYyhOKFtDSDNdKVtDSDNdKVtjSF1jKGMxMilzYyhuMilDMz1OW0NASF0oW0NIMl1TMylDKD1PKU9bQ0gzXQ==

> <s_epik_cmdline>
J2VwaWtfcHl0aG9uJywgJy1waCcsICc3LjQnLCAnLXRuJywgJzgnLCAnLW1hJywgJzIwMCcsICctaW1hZScsICc8aW5maWxlLm1hZT4nLCAnLW9tYWUnLCAnPG91dGZpbGUubWFlPic=

> <r_epik_Ionization_Penalty>
  0.0000

> <r_epik_Ionization_Penalty_Charging>
  0.0000

> <r_epik_Ionization_Penalty_Neutral>
  0.0000

> <r_epik_State_Penalty>
  0.0000

> <r_epik_Charging_Adjusted_Penalty>
0

> <i_epik_Tot_Q>
0

> <i_epik_Tot_abs_Q>
0

> <s_lp_Force_Field>
OPLS3e

> <r_lp_Energy>
23.858639

> <b_lp_Chiralities_Consistent>
1

> <s_lp_Variant>
141447875-1

> <s_m_job_name>
ligprep_22

> <s_m_Source_Path>
/home/andre/Documents/projects/Esterase/data/FINAL_STUFF/Compounds/MAE_external

> <s_m_Source_File>
96.mae

> <i_m_Source_File_Index>
1

> <r_lp_tautomer_probability>
1

> <s_epik_Chemistry_Notes>
This compound has an ester and may undergo hydrolysis at high or low pH. This compound has an imine and may undergo hydrolysis.

$$$$
