98
                    3D
 Schrodinger Suite 2021-1.
 42 43  0  0  1  0            999 V2000
   -2.0891   -1.1270    0.1197 C   0  0  0  0  0  0
   -0.6953   -1.1284    0.1750 C   0  0  0  0  0  0
    0.0144    0.0453    0.4522 C   0  0  0  0  0  0
   -0.7049    1.2292    0.6681 C   0  0  0  0  0  0
   -2.0990    1.2382    0.6116 C   0  0  0  0  0  0
   -2.8002    0.0564    0.3467 C   0  0  0  0  0  0
   -2.7669    2.3980    0.8142 F   0  0  0  0  0  0
   -2.7471   -2.2781   -0.1535 F   0  0  0  0  0  0
   -4.1762    0.0627    0.2765 O   0  0  0  0  0  0
   -4.9109   -0.1480    1.4108 C   0  0  0  0  0  0
   -6.4420   -0.1277    1.1434 C   0  0  0  0  0  0
   -4.4439   -0.3419    2.5386 O   0  0  0  0  0  0
    1.4924   -0.0211    0.5078 C   0  0  0  0  0  0
    2.3374    0.8199    1.1538 C   0  0  0  0  0  0
    2.1322    1.9019    1.9328 N   0  0  0  0  0  0
    3.2636    2.3243    2.2978 C   0  0  0  0  0  0
    4.2717    1.5791    1.8055 N   0  0  0  0  0  0
    3.7593    0.5871    1.0606 C   0  0  0  0  0  0
    4.3756   -0.2943    0.4546 O   0  0  0  0  0  0
    3.5223    3.5266    3.1884 C   0  0  0  0  0  0
    5.7157    1.7322    1.9887 C   0  0  0  0  0  0
   -6.8120   -1.3045    0.2071 C   0  0  0  0  0  0
   -6.8453    1.2177    0.4887 C   0  0  0  0  0  0
   -7.2375   -0.2870    2.4669 C   0  0  0  0  0  0
   -0.1666   -2.0552    0.0026 H   0  0  0  0  0  0
   -0.1950    2.1594    0.8662 H   0  0  0  0  0  0
    1.9122   -0.8413   -0.0608 H   0  0  0  0  0  0
    4.1274    4.2721    2.6721 H   0  0  0  0  0  0
    4.0490    3.2335    4.0968 H   0  0  0  0  0  0
    2.5911    4.0087    3.4884 H   0  0  0  0  0  0
    6.2073    1.8912    1.0280 H   0  0  0  0  0  0
    6.1405    0.8364    2.4437 H   0  0  0  0  0  0
    5.9568    2.5793    2.6312 H   0  0  0  0  0  0
   -7.8865   -1.3377    0.0216 H   0  0  0  0  0  0
   -6.5329   -2.2692    0.6347 H   0  0  0  0  0  0
   -6.3290   -1.2221   -0.7682 H   0  0  0  0  0  0
   -6.3631    1.3680   -0.4787 H   0  0  0  0  0  0
   -6.5922    2.0701    1.1216 H   0  0  0  0  0  0
   -7.9206    1.2617    0.3099 H   0  0  0  0  0  0
   -8.3135   -0.2723    2.2870 H   0  0  0  0  0  0
   -7.0241    0.5199    3.1703 H   0  0  0  0  0  0
   -7.0148   -1.2312    2.9671 H   0  0  0  0  0  0
  1  2  2  0  0  0
  1  6  1  0  0  0
  1  8  1  0  0  0
  2  3  1  0  0  0
  2 25  1  0  0  0
  3  4  2  0  0  0
  3 13  1  0  0  0
  4  5  1  0  0  0
  4 26  1  0  0  0
  5  6  2  0  0  0
  5  7  1  0  0  0
  6  9  1  0  0  0
  9 10  1  0  0  0
 10 11  1  0  0  0
 10 12  2  0  0  0
 11 23  1  0  0  0
 11 22  1  0  0  0
 11 24  1  0  0  0
 13 14  2  0  0  0
 13 27  1  0  0  0
 14 18  1  0  0  0
 14 15  1  0  0  0
 15 16  2  0  0  0
 16 17  1  0  0  0
 16 20  1  0  0  0
 17 18  1  0  0  0
 17 21  1  0  0  0
 18 19  2  0  0  0
 20 28  1  0  0  0
 20 29  1  0  0  0
 20 30  1  0  0  0
 21 31  1  0  0  0
 21 32  1  0  0  0
 21 33  1  0  0  0
 22 34  1  0  0  0
 22 35  1  0  0  0
 22 36  1  0  0  0
 23 37  1  0  0  0
 23 38  1  0  0  0
 23 39  1  0  0  0
 24 40  1  0  0  0
 24 41  1  0  0  0
 24 42  1  0  0  0
M  END
> <s_m_entry_id>
98

> <s_m_entry_name>
entry

> <i_lp_mmshare_version>
47013

> <i_f3d_flags>
0

> <s_epik_input>
W0NIM11DKFtDSDNdKShbQ0gzXSlDKD1PKU9jMWMoRilbY0hdYyhbY0hdYzFGKS9bQ0hdPUMyXE49QyhbQ0gzXSlOKEMyPU8pW0NIM10=

> <s_epik_cmdline>
J2VwaWtfcHl0aG9uJywgJy1waCcsICc3LjQnLCAnLXRuJywgJzgnLCAnLW1hJywgJzIwMCcsICctaW1hZScsICc8aW5maWxlLm1hZT4nLCAnLW9tYWUnLCAnPG91dGZpbGUubWFlPic=

> <r_epik_Ionization_Penalty>
  0.0001

> <r_epik_Ionization_Penalty_Charging>
  0.0000

> <r_epik_Ionization_Penalty_Neutral>
  0.0001

> <r_epik_State_Penalty>
  0.4107

> <r_epik_Charging_Adjusted_Penalty>
0.410679838952604

> <i_epik_Tot_Q>
0

> <i_epik_Tot_abs_Q>
0

> <s_lp_Force_Field>
OPLS3e

> <r_lp_Energy>
23.369159

> <b_lp_Chiralities_Consistent>
1

> <s_lp_Variant>
M117-1

> <s_m_job_name>
ligprep_25

> <s_m_Source_Path>
/home/andre/Documents/projects/Esterase/data/FINAL_STUFF/Compounds/MAE_external

> <s_m_Source_File>
98.mae

> <i_m_Source_File_Index>
1

> <r_lp_tautomer_probability>
0.5

> <s_epik_Chemistry_Notes>
This compound has an imine and may undergo hydrolysis.

$$$$
