99
                    3D
 Schrodinger Suite 2021-1.
 40 42  0  0  1  0            999 V2000
   -2.1521   -1.1150    0.1074 C   0  0  0  0  0  0
   -0.7576   -1.1127    0.1444 C   0  0  0  0  0  0
   -0.0477    0.0542    0.4489 C   0  0  0  0  0  0
   -0.7684    1.2280    0.7109 C   0  0  0  0  0  0
   -2.1631    1.2331    0.6743 C   0  0  0  0  0  0
   -2.8640    0.0578    0.3819 C   0  0  0  0  0  0
   -2.8316    2.3834    0.9229 F   0  0  0  0  0  0
   -2.8092   -2.2593   -0.1942 F   0  0  0  0  0  0
   -4.2417    0.0620    0.3322 O   0  0  0  0  0  0
   -4.9664   -0.2026    1.4648 C   0  0  0  0  0  0
   -6.4501   -0.1602    1.2358 C   0  0  0  0  0  0
   -4.4612   -0.4410    2.5673 O   0  0  0  0  0  0
    1.4313   -0.0099    0.4844 C   0  0  0  0  0  0
    2.2841    0.8221    1.1321 C   0  0  0  0  0  0
    2.0887    1.8925    1.9292 N   0  0  0  0  0  0
    3.2243    2.3103    2.2859 C   0  0  0  0  0  0
    4.2263    1.5717    1.7715 N   0  0  0  0  0  0
    3.7049    0.5908    1.0182 C   0  0  0  0  0  0
    4.3139   -0.2816    0.3919 O   0  0  0  0  0  0
    3.4936    3.5008    3.1893 C   0  0  0  0  0  0
    5.6724    1.7214    1.9401 C   0  0  0  0  0  0
   -7.3159   -0.3506    2.3231 C   0  0  0  0  0  0
   -8.6962   -0.3204    2.1426 C   0  0  0  0  0  0
   -9.2220   -0.0995    0.8731 C   0  0  0  0  0  0
   -8.3791    0.0916   -0.2176 C   0  0  0  0  0  0
   -6.9985    0.0608   -0.0389 C   0  0  0  0  0  0
   -0.2284   -2.0317   -0.0641 H   0  0  0  0  0  0
   -0.2605    2.1542    0.9310 H   0  0  0  0  0  0
    1.8451   -0.8212   -0.1014 H   0  0  0  0  0  0
    4.0903    4.2544    2.6745 H   0  0  0  0  0  0
    4.0325    3.1961    4.0868 H   0  0  0  0  0  0
    2.5656    3.9768    3.5086 H   0  0  0  0  0  0
    6.1525    1.8963    0.9764 H   0  0  0  0  0  0
    6.1023    0.8182    2.3755 H   0  0  0  0  0  0
    5.9208    2.5576    2.5938 H   0  0  0  0  0  0
   -6.9305   -0.5231    3.3182 H   0  0  0  0  0  0
   -9.3558   -0.4684    2.9849 H   0  0  0  0  0  0
  -10.2928   -0.0765    0.7334 H   0  0  0  0  0  0
   -8.7941    0.2622   -1.2001 H   0  0  0  0  0  0
   -6.3696    0.2094   -0.9049 H   0  0  0  0  0  0
  1  2  2  0  0  0
  1  6  1  0  0  0
  1  8  1  0  0  0
  2  3  1  0  0  0
  2 27  1  0  0  0
  3  4  2  0  0  0
  3 13  1  0  0  0
  4  5  1  0  0  0
  4 28  1  0  0  0
  5  6  2  0  0  0
  5  7  1  0  0  0
  6  9  1  0  0  0
  9 10  1  0  0  0
 10 11  1  0  0  0
 10 12  2  0  0  0
 11 26  2  0  0  0
 11 22  1  0  0  0
 13 14  2  0  0  0
 13 29  1  0  0  0
 14 15  1  0  0  0
 14 18  1  0  0  0
 15 16  2  0  0  0
 16 17  1  0  0  0
 16 20  1  0  0  0
 17 18  1  0  0  0
 17 21  1  0  0  0
 18 19  2  0  0  0
 20 30  1  0  0  0
 20 31  1  0  0  0
 20 32  1  0  0  0
 21 33  1  0  0  0
 21 34  1  0  0  0
 21 35  1  0  0  0
 22 23  2  0  0  0
 22 36  1  0  0  0
 23 24  1  0  0  0
 23 37  1  0  0  0
 24 25  2  0  0  0
 24 38  1  0  0  0
 25 26  1  0  0  0
 25 39  1  0  0  0
 26 40  1  0  0  0
M  END
> <s_m_entry_id>
99

> <s_m_entry_name>
entry

> <i_lp_mmshare_version>
47013

> <i_f3d_flags>
0

> <s_epik_input>
Tz1DMU4oW0NIM10pQyhbQ0gzXSk9Ti9DMT1bQ0hdXGMoW2NIXWMyRilbY0hdYyhGKWMyT0MoPU8pYzNbY0hdW2NIXVtjSF1bY0hdW2NIXTM=

> <s_epik_cmdline>
J2VwaWtfcHl0aG9uJywgJy1waCcsICc3LjQnLCAnLXRuJywgJzgnLCAnLW1hJywgJzIwMCcsICctaW1hZScsICc8aW5maWxlLm1hZT4nLCAnLW9tYWUnLCAnPG91dGZpbGUubWFlPic=

> <r_epik_Ionization_Penalty>
  0.0001

> <r_epik_Ionization_Penalty_Charging>
  0.0000

> <r_epik_Ionization_Penalty_Neutral>
  0.0001

> <r_epik_State_Penalty>
  0.4107

> <r_epik_Charging_Adjusted_Penalty>
0.410679838952604

> <i_epik_Tot_Q>
0

> <i_epik_Tot_abs_Q>
0

> <s_lp_Force_Field>
OPLS3e

> <r_lp_Energy>
26.856435

> <b_lp_Chiralities_Consistent>
1

> <s_lp_Variant>
M118-1

> <s_m_job_name>
ligprep_26

> <s_m_Source_Path>
/home/andre/Documents/projects/Esterase/data/FINAL_STUFF/Compounds/MAE_external

> <s_m_Source_File>
99.mae

> <i_m_Source_File_Index>
1

> <r_lp_tautomer_probability>
0.5

> <s_epik_Chemistry_Notes>
This compound has an imine and may undergo hydrolysis.

$$$$
